
  Marvin  07121013252D          

893845  0  0  1  0            999 V2000
    0.6674    0.2169    0.0000 C   0  0  0  0  0  0  0  0  0  0  0  0
    0.4125   -0.5678    0.0000 C   0  0  0  0  0  0  0  0  0  0  0  0
   -0.4125   -0.5678    0.0000 C   0  0  0  0  0  0  0  0  0  0  0  0
   -0.6674    0.2169    0.0000 C   0  0  0  0  0  0  0  0  0  0  0  0
   -0.0000    0.7018    0.0000 C   0  0  0  0  0  0  0  0  0  0  0  0
    5.7332    0.4125    0.0000 C   0  0  0  0  0  0  0  0  0  0  0  0
    5.7332   -0.4125    0.0000 C   0  0  0  0  0  0  0  0  0  0  0  0
    5.0187   -0.8250    0.0000 C   0  0  0  0  0  0  0  0  0  0  0  0
    4.3042   -0.4125    0.0000 C   0  0  0  0  0  0  0  0  0  0  0  0
    4.3042    0.4125    0.0000 C   0  0  0  0  0  0  0  0  0  0  0  0
    5.0187    0.8250    0.0000 C   0  0  0  0  0  0  0  0  0  0  0  0
   10.7047    0.4125    0.0000 C   0  0  0  0  0  0  0  0  0  0  0  0
   10.7047   -0.4125    0.0000 C   0  0  0  0  0  0  0  0  0  0  0  0
    9.9902   -0.8250    0.0000 C   0  0  0  0  0  0  0  0  0  0  0  0
    9.2757   -0.4125    0.0000 C   0  0  0  0  0  0  0  0  0  0  0  0
    9.2757    0.4125    0.0000 C   0  0  0  0  0  0  0  0  0  0  0  0
    9.9902    0.8250    0.0000 C   0  0  0  0  0  0  0  0  0  0  0  0
   15.5661   -0.4125    0.0000 C   0  0  0  0  0  0  0  0  0  0  0  0
   14.8516   -0.8250    0.0000 C   0  0  0  0  0  0  0  0  0  0  0  0
   14.1372   -0.4125    0.0000 C   0  0  0  0  0  0  0  0  0  0  0  0
   14.1372    0.4125    0.0000 C   0  0  0  0  0  0  0  0  0  0  0  0
   14.8516    0.8250    0.0000 C   0  0  0  0  0  0  0  0  0  0  0  0
   15.5661    0.4125    0.0000 C   0  0  0  0  0  0  0  0  0  0  0  0
   16.2806    0.8250    0.0000 C   0  0  0  0  0  0  0  0  0  0  0  0
   16.9951    0.4125    0.0000 C   0  0  0  0  0  0  0  0  0  0  0  0
   16.9951   -0.4125    0.0000 C   0  0  0  0  0  0  0  0  0  0  0  0
   16.2806   -0.8250    0.0000 C   0  0  0  0  0  0  0  0  0  0  0  0
   20.9506   -0.1191    0.0000 C   0  0  0  0  0  0  0  0  0  0  0  0
   20.1256   -0.1191    0.0000 O   0  0  0  0  0  0  0  0  0  0  0  0
   19.7131    0.5954    0.0000 H   0  0  0  0  0  0  0  0  0  0  0  0
   25.0167    0.7145    0.0000 C   0  0  0  0  0  0  0  0  0  0  0  0
   24.6042   -0.0000    0.0000 C   0  0  0  0  0  0  0  0  0  0  0  0
   25.0167   -0.7145    0.0000 C   0  0  0  0  0  0  0  0  0  0  0  0
   23.7792   -0.0000    0.0000 O   0  0  0  0  0  0  0  0  0  0  0  0
   29.3847   -0.0893    0.0000 C   0  0  0  0  0  0  0  0  0  0  0  0
   29.7972    0.6252    0.0000 O   0  0  0  0  0  0  0  0  0  0  0  0
   29.7972   -0.8038    0.0000 O   0  0  0  0  0  0  0  0  0  0  0  0
   28.5597   -0.0893    0.0000 C   0  0  0  0  0  0  0  0  0  0  0  0
   34.2758    0.1191    0.0000 S   0  0  0  0  0  0  0  0  0  0  0  0
   33.4508    0.1191    0.0000 C   0  0  0  0  0  0  0  0  0  0  0  0
   34.6883   -0.5954    0.0000 H   0  0  0  0  0  0  0  0  0  0  0  0
   37.1044   -0.0000    0.0000 N   0  0  0  0  0  0  0  0  0  0  0  0
   37.9294   -0.0000    0.0000 H   0  0  0  0  0  0  0  0  0  0  0  0
   36.6919    0.7145    0.0000 H   0  0  0  0  0  0  0  0  0  0  0  0
   41.9954   -0.3175    0.0000 P   0  0  0  0  0  0  0  0  0  0  0  0
   42.4079   -1.0320    0.0000 O   0  5  0  0  0  0  0  0  0  0  0  0
   42.7099    0.0950    0.0000 O   0  0  0  0  0  0  0  0  0  0  0  0
   41.5829    0.3969    0.0000 O   0  0  0  0  0  0  0  0  0  0  0  0
   41.2810   -0.7300    0.0000 O   0  5  0  0  0  0  0  0  0  0  0  0
   40.7579    0.3969    0.0000 C   0  0  0  0  0  0  0  0  0  0  0  0
   -0.0000   -5.4375    0.0000 P   0  0  0  0  0  0  0  0  0  0  0  0
   -0.0000   -6.2625    0.0000 O   0  0  0  0  0  0  0  0  0  0  0  0
    0.0000   -4.6125    0.0000 C   0  0  0  0  0  0  0  0  0  0  0  0
    0.8250   -5.4375    0.0000 O   0  5  0  0  0  0  0  0  0  0  0  0
   -0.8250   -5.4375    0.0000 O   0  5  0  0  0  0  0  0  0  0  0  0
    4.4786   -5.0250    0.0000 C   0  0  0  0  0  0  0  0  0  0  0  0
    3.6536   -5.0250    0.0000 C   0  0  0  0  0  0  0  0  0  0  0  0
    9.3696   -5.5294    0.0000 C   0  0  0  0  0  0  0  0  0  0  0  0
    8.9571   -4.8149    0.0000 C   0  0  0  0  0  0  0  0  0  0  0  0
    8.1321   -4.8149    0.0000 C   0  0  0  0  0  0  0  0  0  0  0  0
   14.1502   -4.3105    0.0000 C   0  0  0  0  0  0  0  0  0  0  0  0
   13.7377   -5.0250    0.0000 C   0  0  0  0  0  0  0  0  0  0  0  0
   14.1502   -5.7395    0.0000 C   0  0  0  0  0  0  0  0  0  0  0  0
   12.9127   -5.0250    0.0000 C   0  0  0  0  0  0  0  0  0  0  0  0
   18.5182   -5.8500    0.0000 C   0  0  0  0  0  0  0  0  0  0  0  0
   18.5182   -5.0250    0.0000 C   0  0  0  0  0  0  0  0  0  0  0  0
   18.5182   -4.2000    0.0000 C   0  0  0  0  0  0  0  0  0  0  0  0
   19.3432   -5.0250    0.0000 C   0  0  0  0  0  0  0  0  0  0  0  0
   17.6932   -5.0250    0.0000 C   0  0  0  0  0  0  0  0  0  0  0  0
   24.2343   -5.2124    0.0000 C   0  0  0  0  0  0  0  0  0  0  0  0
   25.0593   -5.2124    0.0000 C   0  0  0  0  0  0  0  0  0  0  0  0
   23.8218   -4.4979    0.0000 C   0  0  0  0  0  0  0  0  0  0  0  0
   23.8218   -5.9269    0.0000 C   0  0  0  0  0  0  0  0  0  0  0  0
   22.9968   -4.4979    0.0000 C   0  0  0  0  0  0  0  0  0  0  0  0
   30.0313   -5.3625    0.0000 C   0  0  0  0  0  0  0  0  0  0  0  0
   29.3168   -5.7750    0.0000 C   0  0  0  0  0  0  0  0  0  0  0  0
   28.6023   -5.3625    0.0000 C   0  0  0  0  0  0  0  0  0  0  0  0
   28.6023   -4.5375    0.0000 C   0  0  0  0  0  0  0  0  0  0  0  0
   29.3168   -4.1250    0.0000 C   0  0  0  0  0  0  0  0  0  0  0  0
   30.0313   -4.5375    0.0000 N   0  0  0  0  0  0  0  0  0  0  0  0
   34.6380   -5.5637    0.0000 C   0  0  0  0  0  0  0  0  0  0  0  0
   33.8130   -5.5637    0.0000 C   0  0  0  0  0  0  0  0  0  0  0  0
   33.5580   -4.7791    0.0000 C   0  0  0  0  0  0  0  0  0  0  0  0
   34.2255   -4.2942    0.0000 C   0  0  0  0  0  0  0  0  0  0  0  0
   34.8929   -4.7791    0.0000 N   0  0  0  0  0  0  0  0  0  0  0  0
   38.6240   -5.0250    0.0000 C   0  0  0  0  0  0  0  0  0  0  0  0
   37.7990   -5.0250    0.0000 Cl  0  0  0  0  0  0  0  0  0  0  0  0
   42.2775   -5.0250    0.0000 C   0  0  0  0  0  0  0  0  0  0  0  0
   41.4525   -5.0250    0.0000 F   0  0  0  0  0  0  0  0  0  0  0  0
    0.0000  -10.0218    0.0000 C   0  0  0  0  0  0  0  0  0  0  0  0
   -0.8250  -10.0218    0.0000 O   0  0  0  0  0  0  0  0  0  0  0  0
    4.6695  -10.3372    0.0000 C   0  0  0  0  0  0  0  0  0  0  0  0
    3.9550  -10.7497    0.0000 C   0  0  0  0  0  0  0  0  0  0  0  0
    3.2406  -10.3372    0.0000 C   0  0  0  0  0  0  0  0  0  0  0  0
    3.2406   -9.5122    0.0000 C   0  0  0  0  0  0  0  0  0  0  0  0
    3.9550   -9.0997    0.0000 C   0  0  0  0  0  0  0  0  0  0  0  0
    4.6695   -9.5122    0.0000 N   0  5  0  0  0  0  0  0  0  0  0  0
    9.1476  -10.5257    0.0000 C   0  0  0  0  0  0  0  0  0  0  0  0
    9.1476   -9.7007    0.0000 S   0  0  0  0  0  0  0  0  0  0  0  0
    9.9726   -9.7007    0.0000 O   0  0  0  0  0  0  0  0  0  0  0  0
    9.1476   -8.8757    0.0000 O   0  0  0  0  0  0  0  0  0  0  0  0
   13.6262  -10.0218    0.0000 Br  0  0  0  0  0  0  0  0  0  0  0  0
   12.8012  -10.0218    0.0000 C   0  0  0  0  0  0  0  0  0  0  0  0
   17.2797  -10.0218    0.0000 C   0  0  0  0  0  0  0  0  0  0  0  0
   17.6922   -9.3073    0.0000 Cl  0  0  0  0  0  0  0  0  0  0  0  0
   17.6922  -10.7363    0.0000 O   0  0  0  0  0  0  0  0  0  0  0  0
   16.4547  -10.0218    0.0000 C   0  0  0  0  0  0  0  0  0  0  0  0
   21.3458  -10.0218    0.0000 C   0  0  0  0  0  0  0  0  0  0  0  0
   21.7583   -9.3073    0.0000 Br  0  0  0  0  0  0  0  0  0  0  0  0
   21.7583  -10.7363    0.0000 O   0  0  0  0  0  0  0  0  0  0  0  0
   20.5208  -10.0218    0.0000 C   0  0  0  0  0  0  0  0  0  0  0  0
   25.8244  -10.3393    0.0000 C   0  0  0  0  0  0  0  0  0  0  0  0
   25.4119   -9.6249    0.0000 O   0  0  0  0  0  0  0  0  0  0  0  0
   24.5869   -9.6249    0.0000 C   0  0  0  0  0  0  0  0  0  0  0  0
   31.4299  -10.3790    0.0000 C   0  0  0  0  0  0  0  0  0  0  0  0
   30.6049  -10.3790    0.0000 O   0  0  0  0  0  0  0  0  0  0  0  0
   30.1924   -9.6645    0.0000 O   0  0  0  0  0  0  0  0  0  0  0  0
   29.3674   -9.6645    0.0000 C   0  0  0  0  0  0  0  0  0  0  0  0
   35.4960  -11.1829    0.0000 C   0  0  0  0  0  0  0  0  0  0  0  0
   35.0835  -10.4684    0.0000 C   0  0  0  0  0  0  0  0  0  0  0  0
   35.4960   -9.7539    0.0000 N   0  0  0  0  0  0  0  0  0  0  0  0
   35.0835   -9.0395    0.0000 C   0  0  0  0  0  0  0  0  0  0  0  0
   36.3210   -9.7539    0.0000 C   0  0  0  0  0  0  0  0  0  0  0  0
   34.2585  -10.4684    0.0000 O   0  0  0  0  0  0  0  0  0  0  0  0
   40.7996   -9.8269    0.0000 C   0  0  0  0  0  0  0  0  0  0  0  0
   41.2121   -9.1125    0.0000 N   0  0  0  0  0  0  0  0  0  0  0  0
   41.2121  -10.5414    0.0000 C   0  0  0  0  0  0  0  0  0  0  0  0
   39.9746   -9.8269    0.0000 C   0  0  0  0  0  0  0  0  0  0  0  0
    0.8250  -14.2618    0.0000 C   0  0  0  0  0  0  0  0  0  0  0  0
    0.4125  -14.9763    0.0000 N   0  0  0  0  0  0  0  0  0  0  0  0
   -0.4125  -14.9763    0.0000 N   0  0  0  0  0  0  0  0  0  0  0  0
   -0.8250  -15.6908    0.0000 C   0  0  0  0  0  0  0  0  0  0  0  0
    5.6055  -15.1804    0.0000 C   0  0  0  0  0  0  0  0  0  0  0  0
    5.1930  -14.4660    0.0000 O   0  0  0  0  0  0  0  0  0  0  0  0
    4.3680  -14.4660    0.0000 C   0  0  0  0  0  0  0  0  0  0  0  0
    3.5430  -14.4660    0.0000 N   0  0  0  0  0  0  0  0  0  0  0  0
   10.3861  -15.3335    0.0000 C   0  0  0  0  0  0  0  0  0  0  0  0
    9.5611  -15.3335    0.0000 O   0  0  0  0  0  0  0  0  0  0  0  0
    9.1486  -14.6191    0.0000 C   0  0  0  0  0  0  0  0  0  0  0  0
    8.3236  -14.6191    0.0000 S   0  0  0  0  0  0  0  0  0  0  0  0
   14.4522  -14.4047    0.0000 O   0  0  0  0  0  0  0  0  0  0  0  0
   14.0397  -15.1192    0.0000 N   0  3  0  0  0  0  0  0  0  0  0  0
   14.4522  -15.8337    0.0000 O   0  5  0  0  0  0  0  0  0  0  0  0
   13.2147  -15.1192    0.0000 O   0  0  0  0  0  0  0  0  0  0  0  0
   18.1057  -14.9763    0.0000 C   0  0  0  0  0  0  0  0  0  0  0  0
   17.2807  -14.9763    0.0000 N   0  0  0  0  0  0  0  0  0  0  0  0
   21.0522  -14.8388    0.0000 O   0  5  0  0  0  0  0  0  0  0  0  0
   21.7666  -15.2513    0.0000 N   0  0  0  0  0  0  0  0  0  0  0  0
   22.4811  -14.8388    0.0000 O   0  0  0  0  0  0  0  0  0  0  0  0
   25.1991  -14.7013    0.0000 N   0  0  0  0  0  0  0  0  0  0  0  0
   24.4847  -15.1138    0.0000 O   0  0  0  0  0  0  0  0  0  0  0  0
    8.3226   -9.7007    0.0000 C   0  0  0  0  0  0  0  0  0  0  0  0
   29.5672  -14.3809    0.0000 O   0  0  0  0  0  0  0  0  0  0  0  0
   29.1547  -15.0954    0.0000 S   0  0  0  0  0  0  0  0  0  0  0  0
   29.5672  -15.8098    0.0000 O   0  0  0  0  0  0  0  0  0  0  0  0
   28.3297  -15.0954    0.0000 O   0  0  0  0  0  0  0  0  0  0  0  0
   33.2208  -14.2618    0.0000 C   0  0  0  0  0  0  0  0  0  0  0  0
   32.8083  -14.9763    0.0000 S   0  0  0  0  0  0  0  0  0  0  0  0
   33.2208  -15.6908    0.0000 C   0  0  0  0  0  0  0  0  0  0  0  0
   31.9833  -14.9763    0.0000 O   0  0  0  0  0  0  0  0  0  0  0  0
   38.8263  -15.3335    0.0000 C   0  0  0  0  0  0  0  0  0  0  0  0
   38.0013  -15.3335    0.0000 S   0  0  0  0  0  0  0  0  0  0  0  0
   37.5888  -14.6191    0.0000 S   0  0  0  0  0  0  0  0  0  0  0  0
   36.7638  -14.6191    0.0000 C   0  0  0  0  0  0  0  0  0  0  0  0
    0.8097  -19.3056    0.0000 N   0  5  0  0  0  0  0  0  0  0  0  0
    0.8097  -20.1306    0.0000 C   0  0  0  0  0  0  0  0  0  0  0  0
    0.0953  -20.5431    0.0000 C   0  0  0  0  0  0  0  0  0  0  0  0
   -0.6192  -20.1306    0.0000 C   0  0  0  0  0  0  0  0  0  0  0  0
   -0.6192  -19.3056    0.0000 N   0  0  0  0  0  0  0  0  0  0  0  0
    0.0953  -18.8931    0.0000 C   0  0  0  0  0  0  0  0  0  0  0  0
    5.7812  -19.2927    0.0000 N   0  0  0  0  0  0  0  0  0  0  0  0
    5.7812  -20.1177    0.0000 C   0  0  0  0  0  0  0  0  0  0  0  0
    5.0667  -20.5302    0.0000 C   0  0  0  0  0  0  0  0  0  0  0  0
    4.3523  -20.1177    0.0000 C   0  0  0  0  0  0  0  0  0  0  0  0
    4.3523  -19.2927    0.0000 N   0  0  0  0  0  0  0  0  0  0  0  0
    5.0667  -18.8802    0.0000 C   0  0  0  0  0  0  0  0  0  0  0  0
   10.6188  -19.7729    0.0000 C   0  0  0  0  0  0  0  0  0  0  0  0
   10.3638  -20.5575    0.0000 C   0  0  0  0  0  0  0  0  0  0  0  0
    9.5388  -20.5575    0.0000 C   0  0  0  0  0  0  0  0  0  0  0  0
    9.2839  -19.7729    0.0000 C   0  0  0  0  0  0  0  0  0  0  0  0
    9.9513  -19.2879    0.0000 C   0  0  0  0  0  0  0  0  0  0  0  0
   14.9718  -19.7376    0.0000 C   0  0  0  0  0  0  0  0  0  0  0  0
   14.7169  -20.5222    0.0000 C   0  0  0  0  0  0  0  0  0  0  0  0
   13.8919  -20.5222    0.0000 C   0  0  0  0  0  0  0  0  0  0  0  0
   13.6369  -19.7376    0.0000 N   0  0  0  0  0  0  0  0  0  0  0  0
   14.3044  -19.2527    0.0000 C   0  0  0  0  0  0  0  0  0  0  0  0
   18.9975  -19.6023    0.0000 C   0  0  0  0  0  0  0  0  0  0  0  0
   19.4100  -18.8878    0.0000 O   0  5  0  0  0  0  0  0  0  0  0  0
   19.4100  -20.3168    0.0000 C   0  0  0  0  0  0  0  0  0  0  0  0
   18.1725  -19.6023    0.0000 N   0  0  0  0  0  0  0  0  0  0  0  0
   22.9133  -19.3692    0.0000 C   0  0  0  0  0  0  0  0  0  0  0  0
   23.5808  -19.8541    0.0000 N   0  0  0  0  0  0  0  0  0  0  0  0
   23.3258  -20.6387    0.0000 C   0  0  0  0  0  0  0  0  0  0  0  0
   22.5008  -20.6387    0.0000 N   0  5  0  0  0  0  0  0  0  0  0  0
   22.2459  -19.8541    0.0000 N   0  5  0  0  0  0  0  0  0  0  0  0
   26.5288  -19.6652    0.0000 N   0  0  0  0  0  0  0  0  0  0  0  0
   27.2433  -19.2527    0.0000 C   0  0  0  0  0  0  0  0  0  0  0  0
   27.9578  -19.6652    0.0000 N   0  0  0  0  0  0  0  0  0  0  0  0
   27.9578  -20.4902    0.0000 C   0  0  0  0  0  0  0  0  0  0  0  0
   27.2433  -20.9027    0.0000 N   0  0  0  0  0  0  0  0  0  0  0  0
   26.5288  -20.4902    0.0000 C   0  0  0  0  0  0  0  0  0  0  0  0
   32.8192  -20.2827    0.0000 C   0  0  0  0  0  0  0  0  0  0  0  0
   32.1047  -20.6952    0.0000 C   0  0  0  0  0  0  0  0  0  0  0  0
   31.3903  -20.2827    0.0000 C   0  0  0  0  0  0  0  0  0  0  0  0
   31.3903  -19.4577    0.0000 N   0  0  0  0  0  0  0  0  0  0  0  0
   32.1047  -19.0452    0.0000 C   0  0  0  0  0  0  0  0  0  0  0  0
   32.8192  -19.4577    0.0000 C   0  0  0  0  0  0  0  0  0  0  0  0
   33.5337  -19.0452    0.0000 C   0  0  0  0  0  0  0  0  0  0  0  0
   34.2481  -19.4577    0.0000 N   0  0  0  0  0  0  0  0  0  0  0  0
   34.2481  -20.2827    0.0000 C   0  0  0  0  0  0  0  0  0  0  0  0
   33.5337  -20.6952    0.0000 N   0  0  0  0  0  0  0  0  0  0  0  0
   39.1096  -19.5847    0.0000 C   0  0  0  0  0  0  0  0  0  0  0  0
   39.1096  -20.4097    0.0000 C   0  0  0  0  0  0  0  0  0  0  0  0
   38.3951  -20.8222    0.0000 C   0  0  0  0  0  0  0  0  0  0  0  0
   37.6807  -20.4097    0.0000 C   0  0  0  0  0  0  0  0  0  0  0  0
   37.6807  -19.5847    0.0000 C   0  0  0  0  0  0  0  0  0  0  0  0
   38.3951  -19.1722    0.0000 C   0  0  0  0  0  0  0  0  0  0  0  0
   43.9711  -19.7229    0.0000 C   0  0  0  0  0  0  0  0  0  0  0  0
   43.9711  -20.5479    0.0000 C   0  0  0  0  0  0  0  0  0  0  0  0
   43.2566  -20.9604    0.0000 C   0  0  0  0  0  0  0  0  0  0  0  0
   42.5421  -20.5479    0.0000 C   0  0  0  0  0  0  0  0  0  0  0  0
   42.5421  -19.7229    0.0000 C   0  0  0  0  0  0  0  0  0  0  0  0
   43.2566  -19.3104    0.0000 C   0  0  0  0  0  0  0  0  0  0  0  0
   36.9662  -19.1722    0.0000 O   0  0  0  0  0  0  0  0  0  0  0  0
   41.8276  -19.3104    0.0000 O   0  0  0  0  0  0  0  0  0  0  0  0
   43.2566  -18.4854    0.0000 O   0  0  0  0  0  0  0  0  0  0  0  0
    0.4125  -24.6627    0.0000 C   0  0  0  0  0  0  0  0  0  0  0  0
   -0.4125  -24.6627    0.0000 P   0  3  0  0  0  0  0  0  0  0  0  0
    4.1839  -24.6627    0.0000 C   0  0  0  0  0  0  0  0  0  0  0  0
    4.5964  -25.3771    0.0000 O   0  0  0  0  0  0  0  0  0  0  0  0
    3.3589  -24.6627    0.0000 O   0  5  0  0  0  0  0  0  0  0  0  0
    7.4250  -24.6627    0.0000 N   0  3  0  0  0  0  0  0  0  0  0  0
    8.2500  -24.6627    0.0000 H   0  0  0  0  0  0  0  0  0  0  0  0
    7.4250  -23.8377    0.0000 H   0  0  0  0  0  0  0  0  0  0  0  0
    6.6000  -24.6627    0.0000 H   0  0  0  0  0  0  0  0  0  0  0  0
   11.0786  -24.6627    0.0000 N   0  3  0  0  0  0  0  0  0  0  0  0
   11.9036  -24.6627    0.0000 H   0  0  0  0  0  0  0  0  0  0  0  0
   11.0786  -23.8377    0.0000 H   0  0  0  0  0  0  0  0  0  0  0  0
   14.7321  -24.6627    0.0000 N   0  3  0  0  0  0  0  0  0  0  0  0
   15.5571  -24.6627    0.0000 H   0  0  0  0  0  0  0  0  0  0  0  0
   18.7982  -24.6627    0.0000 N   0  3  0  0  0  0  0  0  0  0  0  0
   19.6232  -24.6627    0.0000 C   0  0  0  0  0  0  0  0  0  0  0  0
   17.9732  -24.6627    0.0000 C   0  0  0  0  0  0  0  0  0  0  0  0
   23.6893  -24.6627    0.0000 N   0  0  0  0  0  0  0  0  0  0  0  0
   22.8643  -24.6627    0.0000 C   0  0  0  0  0  0  0  0  0  0  0  0
   26.9304  -24.3054    0.0000 C   0  0  0  0  0  0  0  0  0  0  0  0
   27.3429  -25.0199    0.0000 N   0  0  0  0  0  0  0  0  0  0  0  0
   26.1054  -24.3054    0.0000 S   0  0  0  0  0  0  0  0  0  0  0  0
   31.6235  -24.1542    0.0000 C   0  0  0  0  0  0  0  0  0  0  0  0
   32.2909  -24.6391    0.0000 C   0  0  0  0  0  0  0  0  0  0  0  0
   32.0360  -25.4237    0.0000 C   0  0  0  0  0  0  0  0  0  0  0  0
   31.2110  -25.4237    0.0000 C   0  0  0  0  0  0  0  0  0  0  0  0
   30.9561  -24.6391    0.0000 C   0  0  0  0  0  0  0  0  0  0  0  0
   33.0755  -24.3842    0.0000 N   0  0  0  0  0  0  0  0  0  0  0  0
   37.7574  -24.3142    0.0000 C   0  0  0  0  0  0  0  0  0  0  0  0
   38.4248  -24.7991    0.0000 C   0  0  0  0  0  0  0  0  0  0  0  0
   38.1699  -25.5837    0.0000 C   0  0  0  0  0  0  0  0  0  0  0  0
   37.3449  -25.5837    0.0000 N   0  0  0  0  0  0  0  0  0  0  0  0
   37.0899  -24.7991    0.0000 C   0  0  0  0  0  0  0  0  0  0  0  0
   39.2094  -24.5442    0.0000 N   0  0  0  0  0  0  0  0  0  0  0  0
   36.3053  -24.5442    0.0000 N   0  0  0  0  0  0  0  0  0  0  0  0
   -0.0375  -30.0967    0.0000 C   0  0  0  0  0  0  0  0  0  0  0  0
    0.3750  -29.3822    0.0000 C   0  0  0  0  0  0  0  0  0  0  0  0
    0.3750  -30.8112    0.0000 N   0  0  0  0  0  0  0  0  0  0  0  0
   -0.8625  -30.0967    0.0000 C   0  0  0  0  0  0  0  0  0  0  0  0
    5.5889  -29.6236    0.0000 N   0  0  0  0  0  0  0  0  0  0  0  0
    5.3340  -30.4082    0.0000 C   0  0  0  0  0  0  0  0  0  0  0  0
    4.5090  -30.4082    0.0000 N   0  3  0  0  0  0  0  0  0  0  0  0
    4.2540  -29.6236    0.0000 N   0  0  0  0  0  0  0  0  0  0  0  0
    4.9215  -29.1387    0.0000 C   0  0  0  0  0  0  0  0  0  0  0  0
    4.9215  -28.3137    0.0000 N   0  0  0  0  0  0  0  0  0  0  0  0
    5.8189  -31.0757    0.0000 N   0  0  0  0  0  0  0  0  0  0  0  0
    4.0241  -31.0757    0.0000 N   0  0  0  0  0  0  0  0  0  0  0  0
    9.8804  -29.8276    0.0000 C   0  0  0  0  0  0  0  0  0  0  0  0
   10.2929  -30.5421    0.0000 N   0  0  0  0  0  0  0  0  0  0  0  0
    9.0554  -29.8276    0.0000 N   0  0  0  0  0  0  0  0  0  0  0  0
   13.1215  -30.0317    0.0000 C   0  0  0  0  0  0  0  0  0  0  0  0
   13.5340  -29.3173    0.0000 F   0  0  0  0  0  0  0  0  0  0  0  0
   13.5340  -30.7462    0.0000 F   0  0  0  0  0  0  0  0  0  0  0  0
   12.2965  -30.0317    0.0000 F   0  0  0  0  0  0  0  0  0  0  0  0
   16.7751  -30.1412    0.0000 C   0  0  0  0  0  0  0  0  0  0  0  0
   17.1876  -30.8556    0.0000 F   0  0  0  0  0  0  0  0  0  0  0  0
   15.9501  -30.1412    0.0000 F   0  0  0  0  0  0  0  0  0  0  0  0
   20.3033  -30.0317    0.0000 C   0  0  0  0  0  0  0  0  0  0  0  0
   23.5444  -30.0317    0.0000 N   0  0  0  0  0  0  0  0  0  0  0  0
   27.0874  -29.7567    0.0000 O   0  0  0  0  0  0  0  0  0  0  0  0
   30.5199  -29.7567    0.0000 S   0  0  0  0  0  0  0  0  0  0  0  0
   33.2380  -30.0317    0.0000 F   0  0  0  0  0  0  0  0  0  0  0  0
   -0.4125  -35.1293    0.0000 Cl  0  0  0  0  0  0  0  0  0  0  0  0
    2.5339  -35.1293    0.0000 Br  0  0  0  0  0  0  0  0  0  0  0  0
    5.7750  -35.1293    0.0000 P   0  0  0  0  0  0  0  0  0  0  0  0
   10.1684  -34.9967    0.0000 N   0  0  0  0  0  0  0  0  0  0  0  0
    9.9135  -35.7813    0.0000 N   0  0  0  0  0  0  0  0  0  0  0  0
    9.0885  -35.7813    0.0000 C   0  0  0  0  0  0  0  0  0  0  0  0
    8.8336  -34.9967    0.0000 N   0  0  0  0  0  0  0  0  0  0  0  0
    9.5010  -34.5118    0.0000 C   0  0  0  0  0  0  0  0  0  0  0  0
   13.7816  -35.1293    0.0000 P   0  0  0  0  0  0  0  0  0  0  0  0
   13.7816  -35.9543    0.0000 O   0  0  0  0  0  0  0  0  0  0  0  0
   13.7816  -34.3043    0.0000 O   0  0  0  0  0  0  0  0  0  0  0  0
   14.6066  -35.1293    0.0000 C   0  0  0  0  0  0  0  0  0  0  0  0
   12.9566  -35.1293    0.0000 O   0  0  0  0  0  0  0  0  0  0  0  0
   19.5786  -34.7168    0.0000 C   0  0  0  0  0  0  0  0  0  0  0  0
   19.5786  -35.5418    0.0000 C   0  0  0  0  0  0  0  0  0  0  0  0
   18.8641  -35.9543    0.0000 C   0  0  0  0  0  0  0  0  0  0  0  0
   18.1497  -35.5418    0.0000 C   0  0  0  0  0  0  0  0  0  0  0  0
   18.1497  -34.7168    0.0000 C   0  0  0  0  0  0  0  0  0  0  0  0
   18.8641  -34.3043    0.0000 C   0  0  0  0  0  0  0  0  0  0  0  0
   24.5579  -34.7168    0.0000 C   0  0  0  0  0  0  0  0  0  0  0  0
   24.5579  -35.5418    0.0000 C   0  0  0  0  0  0  0  0  0  0  0  0
   23.8435  -35.9543    0.0000 C   0  0  0  0  0  0  0  0  0  0  0  0
   23.1290  -35.5418    0.0000 C   0  0  0  0  0  0  0  0  0  0  0  0
   23.1290  -34.7168    0.0000 C   0  0  0  0  0  0  0  0  0  0  0  0
   23.8435  -34.3043    0.0000 C   0  0  0  0  0  0  0  0  0  0  0  0
   20.2931  -35.9543    0.0000 Cl  0  0  0  0  0  0  0  0  0  0  0  0
   25.2724  -35.9543    0.0000 Cl  0  0  0  0  0  0  0  0  0  0  0  0
   22.4145  -35.9543    0.0000 Cl  0  0  0  0  0  0  0  0  0  0  0  0
   29.1405  -35.8166    0.0000 C   0  0  0  0  0  0  0  0  0  0  0  0
   28.3155  -35.8166    0.0000 C   0  0  0  0  0  0  0  0  0  0  0  0
   28.0606  -35.0320    0.0000 C   0  0  0  0  0  0  0  0  0  0  0  0
   28.7280  -34.5470    0.0000 C   0  0  0  0  0  0  0  0  0  0  0  0
   29.3955  -35.0320    0.0000 C   0  0  0  0  0  0  0  0  0  0  0  0
   34.0482  -35.7949    0.0000 C   0  0  0  0  0  0  0  0  0  0  0  0
   33.2232  -35.7949    0.0000 C   0  0  0  0  0  0  0  0  0  0  0  0
   32.9683  -35.0103    0.0000 C   0  0  0  0  0  0  0  0  0  0  0  0
   33.6357  -34.5254    0.0000 C   0  0  1  0  0  0  0  0  0  0  0  0
   34.3032  -35.0103    0.0000 C   0  0  0  0  0  0  0  0  0  0  0  0
   33.6357  -33.7004    0.0000 Cl  0  0  0  0  0  0  0  0  0  0  0  0
   32.7383  -36.4624    0.0000 Cl  0  0  0  0  0  0  0  0  0  0  0  0
   27.8306  -36.4840    0.0000 Cl  0  0  0  0  0  0  0  0  0  0  0  0
   38.3289  -35.1293    0.0000 N   0  0  0  0  0  0  0  0  0  0  0  0
   38.7414  -35.8438    0.0000 O   0  0  0  0  0  0  0  0  0  0  0  0
   37.5039  -35.1293    0.0000 O   0  0  0  0  0  0  0  0  0  0  0  0
    0.0000  -40.3146    0.0000 C   0  0  0  0  0  0  0  0  0  0  0  0
    0.4125  -41.0291    0.0000 O   0  0  0  0  0  0  0  0  0  0  0  0
   -0.8250  -40.3146    0.0000 O   0  0  0  0  0  0  0  0  0  0  0  0
    4.4786  -40.8372    0.0000 P   0  0  2  0  0  0  0  0  0  0  0  0
    4.0661  -40.1228    0.0000 O   0  0  0  0  0  0  0  0  0  0  0  0
    4.8911  -41.5517    0.0000 O   0  0  0  0  0  0  0  0  0  0  0  0
    5.1930  -40.4247    0.0000 C   0  0  0  0  0  0  0  0  0  0  0  0
    3.7641  -41.2497    0.0000 O   0  0  0  0  0  0  0  0  0  0  0  0
   10.7690  -39.9227    0.0000 N   0  0  0  0  0  0  0  0  0  0  0  0
   10.0545  -40.3352    0.0000 C   0  0  0  0  0  0  0  0  0  0  0  0
   11.4834  -40.3352    0.0000 H   0  0  0  0  0  0  0  0  0  0  0  0
   10.7690  -39.0977    0.0000 H   0  0  0  0  0  0  0  0  0  0  0  0
   10.0545  -41.1602    0.0000 C   0  0  0  0  0  0  0  0  0  0  0  0
    9.3400  -41.5727    0.0000 C   0  0  0  0  0  0  0  0  0  0  0  0
    8.6256  -41.1602    0.0000 C   0  0  0  0  0  0  0  0  0  0  0  0
    8.6256  -40.3352    0.0000 C   0  0  0  0  0  0  0  0  0  0  0  0
    9.3400  -39.9227    0.0000 C   0  0  0  0  0  0  0  0  0  0  0  0
   16.3449  -39.9301    0.0000 C   0  0  0  0  0  0  0  0  0  0  0  0
   16.3449  -40.7551    0.0000 C   0  0  0  0  0  0  0  0  0  0  0  0
   15.6304  -41.1676    0.0000 C   0  0  0  0  0  0  0  0  0  0  0  0
   14.9160  -40.7551    0.0000 C   0  0  0  0  0  0  0  0  0  0  0  0
   14.9160  -39.9301    0.0000 C   0  0  0  0  0  0  0  0  0  0  0  0
   15.6304  -39.5176    0.0000 C   0  0  0  0  0  0  0  0  0  0  0  0
   17.0594  -41.1676    0.0000 N   0  0  0  0  0  0  0  0  0  0  0  0
   17.0594  -41.9926    0.0000 H   0  0  0  0  0  0  0  0  0  0  0  0
   17.7738  -40.7551    0.0000 H   0  0  0  0  0  0  0  0  0  0  0  0
   14.2015  -41.1676    0.0000 N   0  0  0  0  0  0  0  0  0  0  0  0
   13.4870  -40.7551    0.0000 H   0  0  0  0  0  0  0  0  0  0  0  0
   14.2015  -41.9926    0.0000 H   0  0  0  0  0  0  0  0  0  0  0  0
    3.2411  -40.1228    0.0000 C   0  0  0  0  0  0  0  0  0  0  0  0
   22.6353  -40.1879    0.0000 C   0  0  0  0  0  0  0  0  0  0  0  0
   22.6353  -41.0129    0.0000 C   0  0  0  0  0  0  0  0  0  0  0  0
   21.9208  -41.4254    0.0000 C   0  0  0  0  0  0  0  0  0  0  0  0
   21.2064  -41.0129    0.0000 C   0  0  0  0  0  0  0  0  0  0  0  0
   21.2064  -40.1879    0.0000 C   0  0  0  0  0  0  0  0  0  0  0  0
   21.9208  -39.7754    0.0000 C   0  0  0  0  0  0  0  0  0  0  0  0
   23.3498  -39.7754    0.0000 N   0  0  0  0  0  0  0  0  0  0  0  0
   21.9208  -42.2504    0.0000 N   0  0  0  0  0  0  0  0  0  0  0  0
   20.4919  -39.7754    0.0000 N   0  0  0  0  0  0  0  0  0  0  0  0
   24.0642  -40.1879    0.0000 H   0  0  0  0  0  0  0  0  0  0  0  0
   20.4919  -38.9504    0.0000 H   0  0  0  0  0  0  0  0  0  0  0  0
   23.3498  -38.9504    0.0000 H   0  0  0  0  0  0  0  0  0  0  0  0
   21.2064  -42.6629    0.0000 H   0  0  0  0  0  0  0  0  0  0  0  0
   19.7774  -40.1879    0.0000 H   0  0  0  0  0  0  0  0  0  0  0  0
   22.6353  -42.6629    0.0000 H   0  0  0  0  0  0  0  0  0  0  0  0
   28.2112  -40.6489    0.0000 C   0  0  0  0  0  0  0  0  0  0  0  0
   28.9257  -40.2364    0.0000 N   0  0  0  0  0  0  0  0  0  0  0  0
   28.9257  -39.4114    0.0000 C   0  0  0  0  0  0  0  0  0  0  0  0
   28.2112  -41.4739    0.0000 C   0  0  0  0  0  0  0  0  0  0  0  0
   27.4967  -41.8864    0.0000 C   0  0  0  0  0  0  0  0  0  0  0  0
   26.7823  -41.4739    0.0000 C   0  0  0  0  0  0  0  0  0  0  0  0
   26.7823  -40.6489    0.0000 C   0  0  0  0  0  0  0  0  0  0  0  0
   27.4967  -40.2364    0.0000 C   0  0  0  0  0  0  0  0  0  0  0  0
    8.6429  -29.1131    0.0000 H   0  0  0  0  0  0  0  0  0  0  0  0
    8.6429  -30.5421    0.0000 H   0  0  0  0  0  0  0  0  0  0  0  0
    9.8804  -31.2565    0.0000 H   0  0  0  0  0  0  0  0  0  0  0  0
   34.6121  -39.6668    0.0000 C   0  0  0  0  0  0  0  0  0  0  0  0
   35.3266  -39.2543    0.0000 N   0  0  0  0  0  0  0  0  0  0  0  0
   33.8977  -39.2543    0.0000 N   0  0  0  0  0  0  0  0  0  0  0  0
   34.6121  -40.4918    0.0000 N   0  0  0  0  0  0  0  0  0  0  0  0
   33.8977  -40.9043    0.0000 C   0  0  0  0  0  0  0  0  0  0  0  0
   33.8977  -41.7293    0.0000 C   0  0  0  0  0  0  0  0  0  0  0  0
   33.1832  -42.1418    0.0000 C   0  0  0  0  0  0  0  0  0  0  0  0
   32.4687  -41.7293    0.0000 C   0  0  0  0  0  0  0  0  0  0  0  0
   32.4687  -40.9043    0.0000 C   0  0  0  0  0  0  0  0  0  0  0  0
   33.1832  -40.4918    0.0000 C   0  0  0  0  0  0  0  0  0  0  0  0
   29.6402  -40.6489    0.0000 H   0  0  0  0  0  0  0  0  0  0  0  0
   35.3266  -40.9043    0.0000 H   0  0  0  0  0  0  0  0  0  0  0  0
   33.8977  -38.4293    0.0000 H   0  0  0  0  0  0  0  0  0  0  0  0
   36.0411  -39.6668    0.0000 H   0  0  0  0  0  0  0  0  0  0  0  0
   35.3266  -38.4293    0.0000 H   0  0  0  0  0  0  0  0  0  0  0  0
   42.3315  -41.3841    0.0000 N   0  0  0  0  0  0  0  0  0  0  0  0
   43.0460  -40.9716    0.0000 C   0  0  0  0  0  0  0  0  0  0  0  0
   43.0460  -40.1466    0.0000 C   0  0  0  0  0  0  0  0  0  0  0  0
   42.3315  -39.7341    0.0000 C   0  0  0  0  0  0  0  0  0  0  0  0
   41.6170  -40.1466    0.0000 C   0  0  0  0  0  0  0  0  0  0  0  0
   41.6170  -40.9716    0.0000 C   0  0  0  0  0  0  0  0  0  0  0  0
   40.9025  -41.3841    0.0000 C   0  0  0  0  0  0  0  0  0  0  0  0
   40.9025  -39.7341    0.0000 N   0  0  0  0  0  0  0  0  0  0  0  0
   40.1881  -40.1466    0.0000 C   0  0  0  0  0  0  0  0  0  0  0  0
   40.1881  -40.9716    0.0000 C   0  0  0  0  0  0  0  0  0  0  0  0
   39.4736  -41.3841    0.0000 C   0  0  0  0  0  0  0  0  0  0  0  0
   39.4736  -39.7341    0.0000 N   0  0  0  0  0  0  0  0  0  0  0  0
   38.7591  -40.1466    0.0000 C   0  0  0  0  0  0  0  0  0  0  0  0
   38.7591  -40.9716    0.0000 N   0  0  0  0  0  0  0  0  0  0  0  0
   50.0508  -41.4254    0.0000 C   0  0  0  0  0  0  0  0  0  0  0  0
   50.7653  -41.0129    0.0000 C   0  0  0  0  0  0  0  0  0  0  0  0
   50.7653  -40.1879    0.0000 C   0  0  0  0  0  0  0  0  0  0  0  0
   50.0508  -39.7754    0.0000 C   0  0  0  0  0  0  0  0  0  0  0  0
   49.3364  -40.1879    0.0000 C   0  0  0  0  0  0  0  0  0  0  0  0
   49.3364  -41.0129    0.0000 C   0  0  0  0  0  0  0  0  0  0  0  0
   48.6219  -41.4254    0.0000 C   0  0  0  0  0  0  0  0  0  0  0  0
   48.6219  -39.7754    0.0000 C   0  0  0  0  0  0  0  0  0  0  0  0
   47.9074  -40.1879    0.0000 C   0  0  0  0  0  0  0  0  0  0  0  0
   47.9074  -41.0129    0.0000 C   0  0  0  0  0  0  0  0  0  0  0  0
   47.1929  -41.4254    0.0000 C   0  0  0  0  0  0  0  0  0  0  0  0
   47.1929  -39.7754    0.0000 C   0  0  0  0  0  0  0  0  0  0  0  0
   46.4785  -40.1879    0.0000 C   0  0  0  0  0  0  0  0  0  0  0  0
   46.4785  -41.0129    0.0000 C   0  0  0  0  0  0  0  0  0  0  0  0
   57.1958  -40.1360    0.0000 C   0  0  0  0  0  0  0  0  0  0  0  0
   57.6083  -40.8505    0.0000 C   0  0  0  0  0  0  0  0  0  0  0  0
   57.1958  -41.5649    0.0000 C   0  0  0  0  0  0  0  0  0  0  0  0
   56.3708  -41.5649    0.0000 N   0  0  0  0  0  0  0  0  0  0  0  0
   55.9583  -40.8505    0.0000 C   0  0  0  0  0  0  0  0  0  0  0  0
   56.3708  -40.1360    0.0000 C   0  0  0  0  0  0  0  0  0  0  0  0
   55.9583  -39.4215    0.0000 N   0  0  0  0  0  0  0  0  0  0  0  0
   55.1333  -40.8505    0.0000 C   0  0  0  0  0  0  0  0  0  0  0  0
   54.7208  -40.1360    0.0000 C   0  0  0  0  0  0  0  0  0  0  0  0
   55.1333  -39.4215    0.0000 C   0  0  0  0  0  0  0  0  0  0  0  0
   54.7208  -41.5649    0.0000 N   0  0  0  0  0  0  0  0  0  0  0  0
   53.8958  -41.5649    0.0000 C   0  0  0  0  0  0  0  0  0  0  0  0
   53.4833  -40.8505    0.0000 N   0  0  0  0  0  0  0  0  0  0  0  0
   53.8958  -40.1360    0.0000 C   0  0  0  0  0  0  0  0  0  0  0  0
    1.6500  -46.0458    0.0000 C   0  0  0  0  0  0  0  0  0  0  0  0
    2.0625  -46.7603    0.0000 C   0  0  0  0  0  0  0  0  0  0  0  0
    1.6500  -47.4747    0.0000 C   0  0  0  0  0  0  0  0  0  0  0  0
    0.8250  -47.4747    0.0000 C   0  0  0  0  0  0  0  0  0  0  0  0
    0.4125  -46.7603    0.0000 C   0  0  0  0  0  0  0  0  0  0  0  0
    0.8250  -46.0458    0.0000 C   0  0  0  0  0  0  0  0  0  0  0  0
    0.4125  -45.3313    0.0000 C   0  0  0  0  0  0  0  0  0  0  0  0
   -0.4125  -46.7603    0.0000 C   0  0  0  0  0  0  0  0  0  0  0  0
   -0.8250  -46.0458    0.0000 C   0  0  0  0  0  0  0  0  0  0  0  0
   -0.4125  -45.3313    0.0000 C   0  0  0  0  0  0  0  0  0  0  0  0
   -0.8250  -47.4747    0.0000 C   0  0  0  0  0  0  0  0  0  0  0  0
   -1.6500  -47.4747    0.0000 C   0  0  0  0  0  0  0  0  0  0  0  0
   -2.0625  -46.7603    0.0000 C   0  0  0  0  0  0  0  0  0  0  0  0
   -1.6500  -46.0458    0.0000 C   0  0  0  0  0  0  0  0  0  0  0  0
    1.4762    0.0538    0.0000 H   0  0  0  0  0  0  0  0  0  0  0  0
    1.2259    0.8241    0.0000 H   0  0  0  0  0  0  0  0  0  0  0  0
    1.1626   -0.9112    0.0000 H   0  0  0  0  0  0  0  0  0  0  0  0
    0.5073   -1.3873    0.0000 H   0  0  0  0  0  0  0  0  0  0  0  0
   -0.5073   -1.3873    0.0000 H   0  0  0  0  0  0  0  0  0  0  0  0
   -1.1626   -0.9112    0.0000 H   0  0  0  0  0  0  0  0  0  0  0  0
   -1.4762    0.0538    0.0000 H   0  0  0  0  0  0  0  0  0  0  0  0
   -1.2259    0.8241    0.0000 H   0  0  0  0  0  0  0  0  0  0  0  0
    0.4050    1.4205    0.0000 H   0  0  0  0  0  0  0  0  0  0  0  0
   -0.4050    1.4205    0.0000 H   0  0  0  0  0  0  0  0  0  0  0  0
    6.5577    0.4413    0.0000 H   0  0  0  0  0  0  0  0  0  0  0  0
    6.1704    1.1121    0.0000 H   0  0  0  0  0  0  0  0  0  0  0  0
    6.5577   -0.4413    0.0000 H   0  0  0  0  0  0  0  0  0  0  0  0
    6.1704   -1.1121    0.0000 H   0  0  0  0  0  0  0  0  0  0  0  0
    5.4060   -1.5534    0.0000 H   0  0  0  0  0  0  0  0  0  0  0  0
    4.6314   -1.5534    0.0000 H   0  0  0  0  0  0  0  0  0  0  0  0
    3.8670   -1.1121    0.0000 H   0  0  0  0  0  0  0  0  0  0  0  0
    3.4797   -0.4413    0.0000 H   0  0  0  0  0  0  0  0  0  0  0  0
    3.4797    0.4413    0.0000 H   0  0  0  0  0  0  0  0  0  0  0  0
    3.8670    1.1121    0.0000 H   0  0  0  0  0  0  0  0  0  0  0  0
    5.4060    1.5534    0.0000 H   0  0  0  0  0  0  0  0  0  0  0  0
    4.6314    1.5534    0.0000 H   0  0  0  0  0  0  0  0  0  0  0  0
   11.4191    0.8250    0.0000 H   0  0  0  0  0  0  0  0  0  0  0  0
   11.4191   -0.8250    0.0000 H   0  0  0  0  0  0  0  0  0  0  0  0
    9.9902   -1.6500    0.0000 H   0  0  0  0  0  0  0  0  0  0  0  0
    8.5612   -0.8250    0.0000 H   0  0  0  0  0  0  0  0  0  0  0  0
    8.5612    0.8250    0.0000 H   0  0  0  0  0  0  0  0  0  0  0  0
    9.9902    1.6500    0.0000 H   0  0  0  0  0  0  0  0  0  0  0  0
   14.8516   -1.6500    0.0000 H   0  0  0  0  0  0  0  0  0  0  0  0
   13.4227   -0.8250    0.0000 H   0  0  0  0  0  0  0  0  0  0  0  0
   13.4227    0.8250    0.0000 H   0  0  0  0  0  0  0  0  0  0  0  0
   14.8516    1.6500    0.0000 H   0  0  0  0  0  0  0  0  0  0  0  0
   16.2806    1.6500    0.0000 H   0  0  0  0  0  0  0  0  0  0  0  0
   17.7095    0.8250    0.0000 H   0  0  0  0  0  0  0  0  0  0  0  0
   17.7095   -0.8250    0.0000 H   0  0  0  0  0  0  0  0  0  0  0  0
   16.2806   -1.6500    0.0000 H   0  0  0  0  0  0  0  0  0  0  0  0
   20.9506   -0.9441    0.0000 H   0  0  0  0  0  0  0  0  0  0  0  0
   21.7756   -0.1191    0.0000 H   0  0  0  0  0  0  0  0  0  0  0  0
   20.9506    0.7059    0.0000 H   0  0  0  0  0  0  0  0  0  0  0  0
   25.7311    0.3020    0.0000 H   0  0  0  0  0  0  0  0  0  0  0  0
   25.4292    1.4289    0.0000 H   0  0  0  0  0  0  0  0  0  0  0  0
   24.3022    1.1270    0.0000 H   0  0  0  0  0  0  0  0  0  0  0  0
   24.3022   -1.1270    0.0000 H   0  0  0  0  0  0  0  0  0  0  0  0
   25.4292   -1.4289    0.0000 H   0  0  0  0  0  0  0  0  0  0  0  0
   25.7311   -0.3020    0.0000 H   0  0  0  0  0  0  0  0  0  0  0  0
   30.6222    0.6252    0.0000 H   0  0  0  0  0  0  0  0  0  0  0  0
   28.5597    0.7357    0.0000 H   0  0  0  0  0  0  0  0  0  0  0  0
   27.7347   -0.0893    0.0000 H   0  0  0  0  0  0  0  0  0  0  0  0
   28.5597   -0.9143    0.0000 H   0  0  0  0  0  0  0  0  0  0  0  0
   33.4508    0.9441    0.0000 H   0  0  0  0  0  0  0  0  0  0  0  0
   32.6258    0.1191    0.0000 H   0  0  0  0  0  0  0  0  0  0  0  0
   33.4508   -0.7059    0.0000 H   0  0  0  0  0  0  0  0  0  0  0  0
   36.6919   -0.7145    0.0000 H   0  0  0  0  0  0  0  0  0  0  0  0
   40.7579    1.2219    0.0000 H   0  0  0  0  0  0  0  0  0  0  0  0
   39.9329    0.3969    0.0000 H   0  0  0  0  0  0  0  0  0  0  0  0
   40.7579   -0.4281    0.0000 H   0  0  0  0  0  0  0  0  0  0  0  0
    0.8250   -4.6125    0.0000 H   0  0  0  0  0  0  0  0  0  0  0  0
    0.0000   -3.7875    0.0000 H   0  0  0  0  0  0  0  0  0  0  0  0
   -0.8250   -4.6125    0.0000 H   0  0  0  0  0  0  0  0  0  0  0  0
    4.4786   -5.8500    0.0000 H   0  0  0  0  0  0  0  0  0  0  0  0
    5.3036   -5.0250    0.0000 H   0  0  0  0  0  0  0  0  0  0  0  0
    4.4786   -4.2000    0.0000 H   0  0  0  0  0  0  0  0  0  0  0  0
    3.6536   -4.2000    0.0000 H   0  0  0  0  0  0  0  0  0  0  0  0
    2.8286   -5.0250    0.0000 H   0  0  0  0  0  0  0  0  0  0  0  0
    3.6536   -5.8500    0.0000 H   0  0  0  0  0  0  0  0  0  0  0  0
    8.6552   -5.9419    0.0000 H   0  0  0  0  0  0  0  0  0  0  0  0
    9.7821   -6.2439    0.0000 H   0  0  0  0  0  0  0  0  0  0  0  0
   10.0841   -5.1169    0.0000 H   0  0  0  0  0  0  0  0  0  0  0  0
    9.6568   -4.3778    0.0000 H   0  0  0  0  0  0  0  0  0  0  0  0
    8.9859   -3.9904    0.0000 H   0  0  0  0  0  0  0  0  0  0  0  0
    8.1321   -3.9899    0.0000 H   0  0  0  0  0  0  0  0  0  0  0  0
    7.3071   -4.8149    0.0000 H   0  0  0  0  0  0  0  0  0  0  0  0
    8.1321   -5.6399    0.0000 H   0  0  0  0  0  0  0  0  0  0  0  0
   14.8647   -4.7230    0.0000 H   0  0  0  0  0  0  0  0  0  0  0  0
   14.5627   -3.5961    0.0000 H   0  0  0  0  0  0  0  0  0  0  0  0
   13.4357   -3.8980    0.0000 H   0  0  0  0  0  0  0  0  0  0  0  0
   14.5627   -5.0250    0.0000 H   0  0  0  0  0  0  0  0  0  0  0  0
   13.4357   -6.1520    0.0000 H   0  0  0  0  0  0  0  0  0  0  0  0
   14.5627   -6.4539    0.0000 H   0  0  0  0  0  0  0  0  0  0  0  0
   14.8647   -5.3270    0.0000 H   0  0  0  0  0  0  0  0  0  0  0  0
   12.9127   -4.2000    0.0000 H   0  0  0  0  0  0  0  0  0  0  0  0
   12.0877   -5.0250    0.0000 H   0  0  0  0  0  0  0  0  0  0  0  0
   12.9127   -5.8500    0.0000 H   0  0  0  0  0  0  0  0  0  0  0  0
   17.7480   -5.5543    0.0000 H   0  0  0  0  0  0  0  0  0  0  0  0
   18.5182   -6.6750    0.0000 H   0  0  0  0  0  0  0  0  0  0  0  0
   17.7480   -6.1457    0.0000 H   0  0  0  0  0  0  0  0  0  0  0  0
   19.2884   -4.4957    0.0000 H   0  0  0  0  0  0  0  0  0  0  0  0
   18.5182   -3.3750    0.0000 H   0  0  0  0  0  0  0  0  0  0  0  0
   19.2884   -3.9043    0.0000 H   0  0  0  0  0  0  0  0  0  0  0  0
   19.0476   -5.7952    0.0000 H   0  0  0  0  0  0  0  0  0  0  0  0
   20.1682   -5.0250    0.0000 H   0  0  0  0  0  0  0  0  0  0  0  0
   19.6389   -5.7952    0.0000 H   0  0  0  0  0  0  0  0  0  0  0  0
   17.9889   -4.2548    0.0000 H   0  0  0  0  0  0  0  0  0  0  0  0
   16.8682   -5.0250    0.0000 H   0  0  0  0  0  0  0  0  0  0  0  0
   17.3976   -4.2548    0.0000 H   0  0  0  0  0  0  0  0  0  0  0  0
   24.6468   -4.4979    0.0000 H   0  0  0  0  0  0  0  0  0  0  0  0
   25.0593   -6.0374    0.0000 H   0  0  0  0  0  0  0  0  0  0  0  0
   25.8843   -5.2124    0.0000 H   0  0  0  0  0  0  0  0  0  0  0  0
   25.0593   -4.3874    0.0000 H   0  0  0  0  0  0  0  0  0  0  0  0
   24.5214   -4.0607    0.0000 H   0  0  0  0  0  0  0  0  0  0  0  0
   23.8506   -3.6734    0.0000 H   0  0  0  0  0  0  0  0  0  0  0  0
   23.0093   -5.7836    0.0000 H   0  0  0  0  0  0  0  0  0  0  0  0
   23.4093   -6.6413    0.0000 H   0  0  0  0  0  0  0  0  0  0  0  0
   24.5363   -6.3394    0.0000 H   0  0  0  0  0  0  0  0  0  0  0  0
   22.9968   -3.6729    0.0000 H   0  0  0  0  0  0  0  0  0  0  0  0
   22.1718   -4.4979    0.0000 H   0  0  0  0  0  0  0  0  0  0  0  0
   23.2790   -5.2732    0.0000 H   0  0  0  0  0  0  0  0  0  0  0  0
   30.7458   -5.7750    0.0000 H   0  0  0  0  0  0  0  0  0  0  0  0
   29.3168   -6.6000    0.0000 H   0  0  0  0  0  0  0  0  0  0  0  0
   27.8879   -5.7750    0.0000 H   0  0  0  0  0  0  0  0  0  0  0  0
   27.8879   -4.1250    0.0000 H   0  0  0  0  0  0  0  0  0  0  0  0
   29.3168   -3.3000    0.0000 H   0  0  0  0  0  0  0  0  0  0  0  0
   34.7328   -6.3833    0.0000 H   0  0  0  0  0  0  0  0  0  0  0  0
   35.3881   -5.9072    0.0000 H   0  0  0  0  0  0  0  0  0  0  0  0
   33.7182   -6.3833    0.0000 H   0  0  0  0  0  0  0  0  0  0  0  0
   33.0629   -5.9072    0.0000 H   0  0  0  0  0  0  0  0  0  0  0  0
   32.7493   -4.9422    0.0000 H   0  0  0  0  0  0  0  0  0  0  0  0
   32.9996   -4.1718    0.0000 H   0  0  0  0  0  0  0  0  0  0  0  0
   33.8205   -3.5755    0.0000 H   0  0  0  0  0  0  0  0  0  0  0  0
   34.6305   -3.5755    0.0000 H   0  0  0  0  0  0  0  0  0  0  0  0
   35.6775   -4.5242    0.0000 H   0  0  0  0  0  0  0  0  0  0  0  0
   38.6240   -5.8500    0.0000 H   0  0  0  0  0  0  0  0  0  0  0  0
   39.4490   -5.0250    0.0000 H   0  0  0  0  0  0  0  0  0  0  0  0
   38.6240   -4.2000    0.0000 H   0  0  0  0  0  0  0  0  0  0  0  0
   42.2775   -5.8500    0.0000 H   0  0  0  0  0  0  0  0  0  0  0  0
   43.1025   -5.0250    0.0000 H   0  0  0  0  0  0  0  0  0  0  0  0
   42.2775   -4.2000    0.0000 H   0  0  0  0  0  0  0  0  0  0  0  0
    0.4125  -10.7363    0.0000 H   0  0  0  0  0  0  0  0  0  0  0  0
    0.4125   -9.3073    0.0000 H   0  0  0  0  0  0  0  0  0  0  0  0
    5.1067  -11.0368    0.0000 H   0  0  0  0  0  0  0  0  0  0  0  0
    5.4940  -10.3660    0.0000 H   0  0  0  0  0  0  0  0  0  0  0  0
    4.3424  -11.4781    0.0000 H   0  0  0  0  0  0  0  0  0  0  0  0
    3.5677  -11.4781    0.0000 H   0  0  0  0  0  0  0  0  0  0  0  0
    2.8034  -11.0368    0.0000 H   0  0  0  0  0  0  0  0  0  0  0  0
    2.4161  -10.3660    0.0000 H   0  0  0  0  0  0  0  0  0  0  0  0
    2.4161   -9.4834    0.0000 H   0  0  0  0  0  0  0  0  0  0  0  0
    2.8034   -8.8126    0.0000 H   0  0  0  0  0  0  0  0  0  0  0  0
    3.5677   -8.3713    0.0000 H   0  0  0  0  0  0  0  0  0  0  0  0
    4.3424   -8.3713    0.0000 H   0  0  0  0  0  0  0  0  0  0  0  0
    9.1476  -11.3507    0.0000 H   0  0  0  0  0  0  0  0  0  0  0  0
    9.9726  -10.5257    0.0000 H   0  0  0  0  0  0  0  0  0  0  0  0
   12.8012   -9.1968    0.0000 H   0  0  0  0  0  0  0  0  0  0  0  0
   11.9762  -10.0218    0.0000 H   0  0  0  0  0  0  0  0  0  0  0  0
   12.8012  -10.8468    0.0000 H   0  0  0  0  0  0  0  0  0  0  0  0
   16.4547   -9.1968    0.0000 H   0  0  0  0  0  0  0  0  0  0  0  0
   15.6297  -10.0218    0.0000 H   0  0  0  0  0  0  0  0  0  0  0  0
   16.4547  -10.8468    0.0000 H   0  0  0  0  0  0  0  0  0  0  0  0
   20.5208   -9.1968    0.0000 H   0  0  0  0  0  0  0  0  0  0  0  0
   19.6958  -10.0218    0.0000 H   0  0  0  0  0  0  0  0  0  0  0  0
   20.5208  -10.8468    0.0000 H   0  0  0  0  0  0  0  0  0  0  0  0
   25.1099  -10.7518    0.0000 H   0  0  0  0  0  0  0  0  0  0  0  0
   26.2369  -11.0538    0.0000 H   0  0  0  0  0  0  0  0  0  0  0  0
   26.5388   -9.9268    0.0000 H   0  0  0  0  0  0  0  0  0  0  0  0
   24.5869   -8.7999    0.0000 H   0  0  0  0  0  0  0  0  0  0  0  0
   23.7619   -9.6249    0.0000 H   0  0  0  0  0  0  0  0  0  0  0  0
   24.5869  -10.4499    0.0000 H   0  0  0  0  0  0  0  0  0  0  0  0
   31.4299  -11.2040    0.0000 H   0  0  0  0  0  0  0  0  0  0  0  0
   32.2549  -10.3790    0.0000 H   0  0  0  0  0  0  0  0  0  0  0  0
   31.4299   -9.5540    0.0000 H   0  0  0  0  0  0  0  0  0  0  0  0
   29.3674   -8.8395    0.0000 H   0  0  0  0  0  0  0  0  0  0  0  0
   28.5424   -9.6645    0.0000 H   0  0  0  0  0  0  0  0  0  0  0  0
   29.3674  -10.4895    0.0000 H   0  0  0  0  0  0  0  0  0  0  0  0
   34.7815  -11.5954    0.0000 H   0  0  0  0  0  0  0  0  0  0  0  0
   35.9085  -11.8974    0.0000 H   0  0  0  0  0  0  0  0  0  0  0  0
   36.0263  -10.5509    0.0000 H   0  0  0  0  0  0  0  0  0  0  0  0
   35.7980   -8.6270    0.0000 H   0  0  0  0  0  0  0  0  0  0  0  0
   34.6710   -8.3250    0.0000 H   0  0  0  0  0  0  0  0  0  0  0  0
   34.3690   -9.4520    0.0000 H   0  0  0  0  0  0  0  0  0  0  0  0
   36.6031  -10.5292    0.0000 H   0  0  0  0  0  0  0  0  0  0  0  0
   37.1460   -9.7539    0.0000 H   0  0  0  0  0  0  0  0  0  0  0  0
   36.3210   -8.9289    0.0000 H   0  0  0  0  0  0  0  0  0  0  0  0
   42.0371   -9.1125    0.0000 H   0  0  0  0  0  0  0  0  0  0  0  0
   40.4976  -10.9539    0.0000 H   0  0  0  0  0  0  0  0  0  0  0  0
   41.6246  -11.2559    0.0000 H   0  0  0  0  0  0  0  0  0  0  0  0
   41.9265  -10.1289    0.0000 H   0  0  0  0  0  0  0  0  0  0  0  0
   39.9746   -9.0019    0.0000 H   0  0  0  0  0  0  0  0  0  0  0  0
   39.1496   -9.8269    0.0000 H   0  0  0  0  0  0  0  0  0  0  0  0
   39.9746  -10.6519    0.0000 H   0  0  0  0  0  0  0  0  0  0  0  0
    1.5395  -14.6743    0.0000 H   0  0  0  0  0  0  0  0  0  0  0  0
    1.2375  -13.5474    0.0000 H   0  0  0  0  0  0  0  0  0  0  0  0
    0.1105  -13.8493    0.0000 H   0  0  0  0  0  0  0  0  0  0  0  0
   -1.5395  -15.2783    0.0000 H   0  0  0  0  0  0  0  0  0  0  0  0
   -1.2375  -16.4052    0.0000 H   0  0  0  0  0  0  0  0  0  0  0  0
   -0.1105  -16.1033    0.0000 H   0  0  0  0  0  0  0  0  0  0  0  0
    4.8911  -15.5929    0.0000 H   0  0  0  0  0  0  0  0  0  0  0  0
    6.0180  -15.8949    0.0000 H   0  0  0  0  0  0  0  0  0  0  0  0
    6.3200  -14.7679    0.0000 H   0  0  0  0  0  0  0  0  0  0  0  0
   10.3861  -16.1585    0.0000 H   0  0  0  0  0  0  0  0  0  0  0  0
   11.2111  -15.3335    0.0000 H   0  0  0  0  0  0  0  0  0  0  0  0
   10.3861  -14.5085    0.0000 H   0  0  0  0  0  0  0  0  0  0  0  0
    9.5611  -13.9046    0.0000 H   0  0  0  0  0  0  0  0  0  0  0  0
   15.2772  -14.4047    0.0000 H   0  0  0  0  0  0  0  0  0  0  0  0
   18.9307  -14.9763    0.0000 H   0  0  0  0  0  0  0  0  0  0  0  0
   25.9136  -15.1138    0.0000 H   0  0  0  0  0  0  0  0  0  0  0  0
    7.9101   -8.9862    0.0000 H   0  0  0  0  0  0  0  0  0  0  0  0
    7.9101  -10.4151    0.0000 H   0  0  0  0  0  0  0  0  0  0  0  0
   29.9797  -15.0954    0.0000 H   0  0  0  0  0  0  0  0  0  0  0  0
   27.9172  -14.3809    0.0000 H   0  0  0  0  0  0  0  0  0  0  0  0
   33.9352  -14.6743    0.0000 H   0  0  0  0  0  0  0  0  0  0  0  0
   33.6333  -13.5474    0.0000 H   0  0  0  0  0  0  0  0  0  0  0  0
   32.5063  -13.8493    0.0000 H   0  0  0  0  0  0  0  0  0  0  0  0
   32.5063  -16.1033    0.0000 H   0  0  0  0  0  0  0  0  0  0  0  0
   33.6333  -16.4052    0.0000 H   0  0  0  0  0  0  0  0  0  0  0  0
   33.9352  -15.2783    0.0000 H   0  0  0  0  0  0  0  0  0  0  0  0
   38.8263  -16.1585    0.0000 H   0  0  0  0  0  0  0  0  0  0  0  0
   39.6513  -15.3335    0.0000 H   0  0  0  0  0  0  0  0  0  0  0  0
   38.8263  -14.5085    0.0000 H   0  0  0  0  0  0  0  0  0  0  0  0
   36.7638  -13.7941    0.0000 H   0  0  0  0  0  0  0  0  0  0  0  0
   35.9388  -14.6191    0.0000 H   0  0  0  0  0  0  0  0  0  0  0  0
   36.7638  -15.4441    0.0000 H   0  0  0  0  0  0  0  0  0  0  0  0
    1.6342  -20.1594    0.0000 H   0  0  0  0  0  0  0  0  0  0  0  0
    1.2469  -20.8303    0.0000 H   0  0  0  0  0  0  0  0  0  0  0  0
    0.4826  -21.2715    0.0000 H   0  0  0  0  0  0  0  0  0  0  0  0
   -0.2921  -21.2715    0.0000 H   0  0  0  0  0  0  0  0  0  0  0  0
   -1.0564  -20.8303    0.0000 H   0  0  0  0  0  0  0  0  0  0  0  0
   -1.4437  -20.1594    0.0000 H   0  0  0  0  0  0  0  0  0  0  0  0
   -1.3337  -18.8931    0.0000 H   0  0  0  0  0  0  0  0  0  0  0  0
   -0.2921  -18.1647    0.0000 H   0  0  0  0  0  0  0  0  0  0  0  0
    0.4826  -18.1647    0.0000 H   0  0  0  0  0  0  0  0  0  0  0  0
    6.4957  -20.5302    0.0000 H   0  0  0  0  0  0  0  0  0  0  0  0
    5.0667  -21.3552    0.0000 H   0  0  0  0  0  0  0  0  0  0  0  0
    3.6378  -20.5302    0.0000 H   0  0  0  0  0  0  0  0  0  0  0  0
    5.0667  -18.0552    0.0000 H   0  0  0  0  0  0  0  0  0  0  0  0
   11.4034  -19.5179    0.0000 H   0  0  0  0  0  0  0  0  0  0  0  0
   10.8487  -21.2249    0.0000 H   0  0  0  0  0  0  0  0  0  0  0  0
    9.0539  -21.2249    0.0000 H   0  0  0  0  0  0  0  0  0  0  0  0
    8.4993  -19.5179    0.0000 H   0  0  0  0  0  0  0  0  0  0  0  0
    9.5463  -18.5692    0.0000 H   0  0  0  0  0  0  0  0  0  0  0  0
   10.3563  -18.5692    0.0000 H   0  0  0  0  0  0  0  0  0  0  0  0
   15.7564  -19.4827    0.0000 H   0  0  0  0  0  0  0  0  0  0  0  0
   15.2018  -21.1897    0.0000 H   0  0  0  0  0  0  0  0  0  0  0  0
   13.4070  -21.1897    0.0000 H   0  0  0  0  0  0  0  0  0  0  0  0
   13.8994  -18.5339    0.0000 H   0  0  0  0  0  0  0  0  0  0  0  0
   14.7094  -18.5339    0.0000 H   0  0  0  0  0  0  0  0  0  0  0  0
   18.6955  -20.7293    0.0000 H   0  0  0  0  0  0  0  0  0  0  0  0
   19.8225  -21.0313    0.0000 H   0  0  0  0  0  0  0  0  0  0  0  0
   20.1245  -19.9043    0.0000 H   0  0  0  0  0  0  0  0  0  0  0  0
   17.7600  -18.8878    0.0000 H   0  0  0  0  0  0  0  0  0  0  0  0
   23.3183  -18.6504    0.0000 H   0  0  0  0  0  0  0  0  0  0  0  0
   22.5083  -18.6504    0.0000 H   0  0  0  0  0  0  0  0  0  0  0  0
   23.8108  -21.3062    0.0000 H   0  0  0  0  0  0  0  0  0  0  0  0
   26.8560  -18.5242    0.0000 H   0  0  0  0  0  0  0  0  0  0  0  0
   27.6306  -18.5242    0.0000 H   0  0  0  0  0  0  0  0  0  0  0  0
   28.6722  -19.2527    0.0000 H   0  0  0  0  0  0  0  0  0  0  0  0
   28.6722  -20.9027    0.0000 H   0  0  0  0  0  0  0  0  0  0  0  0
   25.8143  -20.9027    0.0000 H   0  0  0  0  0  0  0  0  0  0  0  0
   32.1047  -21.5202    0.0000 H   0  0  0  0  0  0  0  0  0  0  0  0
   30.6758  -20.6952    0.0000 H   0  0  0  0  0  0  0  0  0  0  0  0
   32.1047  -18.2202    0.0000 H   0  0  0  0  0  0  0  0  0  0  0  0
   33.5337  -18.2202    0.0000 H   0  0  0  0  0  0  0  0  0  0  0  0
   34.9626  -20.6952    0.0000 H   0  0  0  0  0  0  0  0  0  0  0  0
   39.8241  -19.1722    0.0000 H   0  0  0  0  0  0  0  0  0  0  0  0
   39.8241  -20.8222    0.0000 H   0  0  0  0  0  0  0  0  0  0  0  0
   38.3951  -21.6472    0.0000 H   0  0  0  0  0  0  0  0  0  0  0  0
   36.9662  -20.8222    0.0000 H   0  0  0  0  0  0  0  0  0  0  0  0
   38.3951  -18.3472    0.0000 H   0  0  0  0  0  0  0  0  0  0  0  0
   44.6855  -19.3104    0.0000 H   0  0  0  0  0  0  0  0  0  0  0  0
   44.6855  -20.9604    0.0000 H   0  0  0  0  0  0  0  0  0  0  0  0
   43.2566  -21.7854    0.0000 H   0  0  0  0  0  0  0  0  0  0  0  0
   41.8276  -20.9604    0.0000 H   0  0  0  0  0  0  0  0  0  0  0  0
   36.9662  -18.3472    0.0000 H   0  0  0  0  0  0  0  0  0  0  0  0
   41.8276  -18.4854    0.0000 H   0  0  0  0  0  0  0  0  0  0  0  0
   43.9711  -18.0729    0.0000 H   0  0  0  0  0  0  0  0  0  0  0  0
    0.4125  -25.4877    0.0000 H   0  0  0  0  0  0  0  0  0  0  0  0
    1.2375  -24.6627    0.0000 H   0  0  0  0  0  0  0  0  0  0  0  0
    0.4125  -23.8377    0.0000 H   0  0  0  0  0  0  0  0  0  0  0  0
    4.5964  -23.9482    0.0000 H   0  0  0  0  0  0  0  0  0  0  0  0
    7.4250  -25.4877    0.0000 H   0  0  0  0  0  0  0  0  0  0  0  0
   10.2536  -24.6627    0.0000 H   0  0  0  0  0  0  0  0  0  0  0  0
   11.0786  -25.4877    0.0000 H   0  0  0  0  0  0  0  0  0  0  0  0
   14.7321  -23.8377    0.0000 H   0  0  0  0  0  0  0  0  0  0  0  0
   13.9071  -24.6627    0.0000 H   0  0  0  0  0  0  0  0  0  0  0  0
   14.7321  -25.4877    0.0000 H   0  0  0  0  0  0  0  0  0  0  0  0
   20.0357  -25.3771    0.0000 H   0  0  0  0  0  0  0  0  0  0  0  0
   20.0357  -23.9482    0.0000 H   0  0  0  0  0  0  0  0  0  0  0  0
   17.5607  -23.9482    0.0000 H   0  0  0  0  0  0  0  0  0  0  0  0
   17.5607  -25.3771    0.0000 H   0  0  0  0  0  0  0  0  0  0  0  0
   24.1018  -25.3771    0.0000 H   0  0  0  0  0  0  0  0  0  0  0  0
   24.1018  -23.9482    0.0000 H   0  0  0  0  0  0  0  0  0  0  0  0
   22.8643  -23.8377    0.0000 H   0  0  0  0  0  0  0  0  0  0  0  0
   22.0393  -24.6627    0.0000 H   0  0  0  0  0  0  0  0  0  0  0  0
   22.8643  -25.4877    0.0000 H   0  0  0  0  0  0  0  0  0  0  0  0
   27.3429  -23.5910    0.0000 H   0  0  0  0  0  0  0  0  0  0  0  0
   26.9304  -25.7344    0.0000 H   0  0  0  0  0  0  0  0  0  0  0  0
   28.1679  -25.0199    0.0000 H   0  0  0  0  0  0  0  0  0  0  0  0
   32.0285  -23.4354    0.0000 H   0  0  0  0  0  0  0  0  0  0  0  0
   31.2185  -23.4354    0.0000 H   0  0  0  0  0  0  0  0  0  0  0  0
   32.5209  -26.0912    0.0000 H   0  0  0  0  0  0  0  0  0  0  0  0
   30.7261  -26.0912    0.0000 H   0  0  0  0  0  0  0  0  0  0  0  0
   30.1714  -24.3842    0.0000 H   0  0  0  0  0  0  0  0  0  0  0  0
   33.6886  -24.9362    0.0000 H   0  0  0  0  0  0  0  0  0  0  0  0
   33.2471  -23.5772    0.0000 H   0  0  0  0  0  0  0  0  0  0  0  0
   38.1624  -23.5954    0.0000 H   0  0  0  0  0  0  0  0  0  0  0  0
   37.3524  -23.5954    0.0000 H   0  0  0  0  0  0  0  0  0  0  0  0
   38.6548  -26.2512    0.0000 H   0  0  0  0  0  0  0  0  0  0  0  0
   39.8225  -25.0962    0.0000 H   0  0  0  0  0  0  0  0  0  0  0  0
   39.3810  -23.7372    0.0000 H   0  0  0  0  0  0  0  0  0  0  0  0
   36.1338  -23.7372    0.0000 H   0  0  0  0  0  0  0  0  0  0  0  0
   35.6922  -25.0962    0.0000 H   0  0  0  0  0  0  0  0  0  0  0  0
    1.0895  -29.7947    0.0000 H   0  0  0  0  0  0  0  0  0  0  0  0
    0.7875  -28.6677    0.0000 H   0  0  0  0  0  0  0  0  0  0  0  0
   -0.3395  -28.9697    0.0000 H   0  0  0  0  0  0  0  0  0  0  0  0
   -0.0375  -31.5256    0.0000 H   0  0  0  0  0  0  0  0  0  0  0  0
    1.2000  -30.8112    0.0000 H   0  0  0  0  0  0  0  0  0  0  0  0
   -1.2750  -30.8112    0.0000 H   0  0  0  0  0  0  0  0  0  0  0  0
   -1.2750  -29.3822    0.0000 H   0  0  0  0  0  0  0  0  0  0  0  0
    3.4694  -29.3687    0.0000 H   0  0  0  0  0  0  0  0  0  0  0  0
    5.6359  -27.9012    0.0000 H   0  0  0  0  0  0  0  0  0  0  0  0
    4.2070  -27.9012    0.0000 H   0  0  0  0  0  0  0  0  0  0  0  0
    5.4833  -31.8293    0.0000 H   0  0  0  0  0  0  0  0  0  0  0  0
    6.6394  -30.9894    0.0000 H   0  0  0  0  0  0  0  0  0  0  0  0
    3.2036  -30.9894    0.0000 H   0  0  0  0  0  0  0  0  0  0  0  0
    4.3596  -31.8293    0.0000 H   0  0  0  0  0  0  0  0  0  0  0  0
   10.2929  -29.1131    0.0000 H   0  0  0  0  0  0  0  0  0  0  0  0
   13.9465  -30.0317    0.0000 H   0  0  0  0  0  0  0  0  0  0  0  0
   17.4747  -29.7040    0.0000 H   0  0  0  0  0  0  0  0  0  0  0  0
   16.8039  -29.3167    0.0000 H   0  0  0  0  0  0  0  0  0  0  0  0
   21.1283  -30.0317    0.0000 H   0  0  0  0  0  0  0  0  0  0  0  0
   20.3033  -29.2067    0.0000 H   0  0  0  0  0  0  0  0  0  0  0  0
   19.4783  -30.0317    0.0000 H   0  0  0  0  0  0  0  0  0  0  0  0
   20.3033  -30.8567    0.0000 H   0  0  0  0  0  0  0  0  0  0  0  0
   24.3694  -30.0317    0.0000 H   0  0  0  0  0  0  0  0  0  0  0  0
   23.1319  -29.3173    0.0000 H   0  0  0  0  0  0  0  0  0  0  0  0
   23.1319  -30.7462    0.0000 H   0  0  0  0  0  0  0  0  0  0  0  0
   26.3729  -30.1692    0.0000 H   0  0  0  0  0  0  0  0  0  0  0  0
   27.8019  -30.1692    0.0000 H   0  0  0  0  0  0  0  0  0  0  0  0
   29.8055  -30.1692    0.0000 H   0  0  0  0  0  0  0  0  0  0  0  0
   31.2344  -30.1692    0.0000 H   0  0  0  0  0  0  0  0  0  0  0  0
   34.0630  -30.0317    0.0000 H   0  0  0  0  0  0  0  0  0  0  0  0
    0.4125  -35.1293    0.0000 H   0  0  0  0  0  0  0  0  0  0  0  0
    3.3589  -35.1293    0.0000 H   0  0  0  0  0  0  0  0  0  0  0  0
    6.6000  -35.1293    0.0000 H   0  0  0  0  0  0  0  0  0  0  0  0
    5.3625  -34.4149    0.0000 H   0  0  0  0  0  0  0  0  0  0  0  0
    5.3625  -35.8438    0.0000 H   0  0  0  0  0  0  0  0  0  0  0  0
   10.9531  -34.7418    0.0000 H   0  0  0  0  0  0  0  0  0  0  0  0
   10.3984  -36.4488    0.0000 H   0  0  0  0  0  0  0  0  0  0  0  0
    8.6036  -36.4488    0.0000 H   0  0  0  0  0  0  0  0  0  0  0  0
    9.0960  -33.7931    0.0000 H   0  0  0  0  0  0  0  0  0  0  0  0
    9.9060  -33.7931    0.0000 H   0  0  0  0  0  0  0  0  0  0  0  0
   13.0672  -36.3668    0.0000 H   0  0  0  0  0  0  0  0  0  0  0  0
   14.4961  -33.8918    0.0000 H   0  0  0  0  0  0  0  0  0  0  0  0
   14.6066  -35.9543    0.0000 H   0  0  0  0  0  0  0  0  0  0  0  0
   15.4316  -35.1293    0.0000 H   0  0  0  0  0  0  0  0  0  0  0  0
   14.6066  -34.3043    0.0000 H   0  0  0  0  0  0  0  0  0  0  0  0
   20.2931  -34.3043    0.0000 H   0  0  0  0  0  0  0  0  0  0  0  0
   18.8641  -36.7793    0.0000 H   0  0  0  0  0  0  0  0  0  0  0  0
   17.4352  -35.9543    0.0000 H   0  0  0  0  0  0  0  0  0  0  0  0
   17.4352  -34.3043    0.0000 H   0  0  0  0  0  0  0  0  0  0  0  0
   18.8641  -33.4793    0.0000 H   0  0  0  0  0  0  0  0  0  0  0  0
   25.2724  -34.3043    0.0000 H   0  0  0  0  0  0  0  0  0  0  0  0
   23.8435  -36.7793    0.0000 H   0  0  0  0  0  0  0  0  0  0  0  0
   22.4145  -34.3043    0.0000 H   0  0  0  0  0  0  0  0  0  0  0  0
   23.8435  -33.4793    0.0000 H   0  0  0  0  0  0  0  0  0  0  0  0
   29.6254  -36.4840    0.0000 H   0  0  0  0  0  0  0  0  0  0  0  0
   27.2760  -34.7770    0.0000 H   0  0  0  0  0  0  0  0  0  0  0  0
   28.3230  -33.8283    0.0000 H   0  0  0  0  0  0  0  0  0  0  0  0
   29.1330  -33.8283    0.0000 H   0  0  0  0  0  0  0  0  0  0  0  0
   30.1801  -34.7770    0.0000 H   0  0  0  0  0  0  0  0  0  0  0  0
   34.5331  -36.4624    0.0000 H   0  0  0  0  0  0  0  0  0  0  0  0
   32.1837  -34.7554    0.0000 H   0  0  0  0  0  0  0  0  0  0  0  0
   32.9006  -34.1509    0.0000 H   0  0  0  0  0  0  0  0  0  0  0  0
   35.0878  -34.7554    0.0000 H   0  0  0  0  0  0  0  0  0  0  0  0
   37.0914  -34.4149    0.0000 H   0  0  0  0  0  0  0  0  0  0  0  0
    0.4125  -39.6001    0.0000 H   0  0  0  0  0  0  0  0  0  0  0  0
   -0.0000  -41.7435    0.0000 H   0  0  0  0  0  0  0  0  0  0  0  0
    4.4786  -42.2662    0.0000 H   0  0  0  0  0  0  0  0  0  0  0  0
    5.6055  -41.1392    0.0000 H   0  0  0  0  0  0  0  0  0  0  0  0
    5.9075  -40.0122    0.0000 H   0  0  0  0  0  0  0  0  0  0  0  0
    4.7805  -39.7103    0.0000 H   0  0  0  0  0  0  0  0  0  0  0  0
   10.7690  -41.5727    0.0000 H   0  0  0  0  0  0  0  0  0  0  0  0
    9.3400  -42.3977    0.0000 H   0  0  0  0  0  0  0  0  0  0  0  0
    7.9111  -41.5727    0.0000 H   0  0  0  0  0  0  0  0  0  0  0  0
    7.9111  -39.9227    0.0000 H   0  0  0  0  0  0  0  0  0  0  0  0
    9.3400  -39.0977    0.0000 H   0  0  0  0  0  0  0  0  0  0  0  0
   17.0594  -39.5176    0.0000 H   0  0  0  0  0  0  0  0  0  0  0  0
   15.6304  -41.9926    0.0000 H   0  0  0  0  0  0  0  0  0  0  0  0
   14.2015  -39.5176    0.0000 H   0  0  0  0  0  0  0  0  0  0  0  0
   15.6304  -38.6926    0.0000 H   0  0  0  0  0  0  0  0  0  0  0  0
    3.2411  -39.2978    0.0000 H   0  0  0  0  0  0  0  0  0  0  0  0
    2.4161  -40.1228    0.0000 H   0  0  0  0  0  0  0  0  0  0  0  0
    3.2411  -40.9478    0.0000 H   0  0  0  0  0  0  0  0  0  0  0  0
   23.3498  -41.4254    0.0000 H   0  0  0  0  0  0  0  0  0  0  0  0
   20.4919  -41.4254    0.0000 H   0  0  0  0  0  0  0  0  0  0  0  0
   21.9208  -38.9504    0.0000 H   0  0  0  0  0  0  0  0  0  0  0  0
   29.7507  -39.4114    0.0000 H   0  0  0  0  0  0  0  0  0  0  0  0
   28.9257  -38.5864    0.0000 H   0  0  0  0  0  0  0  0  0  0  0  0
   28.1007  -39.4114    0.0000 H   0  0  0  0  0  0  0  0  0  0  0  0
   28.9257  -41.8864    0.0000 H   0  0  0  0  0  0  0  0  0  0  0  0
   27.4967  -42.7114    0.0000 H   0  0  0  0  0  0  0  0  0  0  0  0
   26.0678  -41.8864    0.0000 H   0  0  0  0  0  0  0  0  0  0  0  0
   26.0678  -40.2364    0.0000 H   0  0  0  0  0  0  0  0  0  0  0  0
   27.4967  -39.4114    0.0000 H   0  0  0  0  0  0  0  0  0  0  0  0
   34.6121  -42.1418    0.0000 H   0  0  0  0  0  0  0  0  0  0  0  0
   33.1832  -42.9668    0.0000 H   0  0  0  0  0  0  0  0  0  0  0  0
   31.7543  -42.1418    0.0000 H   0  0  0  0  0  0  0  0  0  0  0  0
   31.7543  -40.4918    0.0000 H   0  0  0  0  0  0  0  0  0  0  0  0
   33.1832  -39.6668    0.0000 H   0  0  0  0  0  0  0  0  0  0  0  0
   43.7604  -41.3841    0.0000 H   0  0  0  0  0  0  0  0  0  0  0  0
   43.7604  -39.7341    0.0000 H   0  0  0  0  0  0  0  0  0  0  0  0
   42.3315  -38.9091    0.0000 H   0  0  0  0  0  0  0  0  0  0  0  0
   40.9025  -42.2091    0.0000 H   0  0  0  0  0  0  0  0  0  0  0  0
   39.4736  -42.2091    0.0000 H   0  0  0  0  0  0  0  0  0  0  0  0
   38.0447  -39.7341    0.0000 H   0  0  0  0  0  0  0  0  0  0  0  0
   50.0508  -42.2504    0.0000 H   0  0  0  0  0  0  0  0  0  0  0  0
   51.4798  -41.4254    0.0000 H   0  0  0  0  0  0  0  0  0  0  0  0
   51.4798  -39.7754    0.0000 H   0  0  0  0  0  0  0  0  0  0  0  0
   50.0508  -38.9504    0.0000 H   0  0  0  0  0  0  0  0  0  0  0  0
   48.6219  -42.2504    0.0000 H   0  0  0  0  0  0  0  0  0  0  0  0
   48.6219  -38.9504    0.0000 H   0  0  0  0  0  0  0  0  0  0  0  0
   47.1929  -42.2504    0.0000 H   0  0  0  0  0  0  0  0  0  0  0  0
   47.1929  -38.9504    0.0000 H   0  0  0  0  0  0  0  0  0  0  0  0
   45.7640  -39.7754    0.0000 H   0  0  0  0  0  0  0  0  0  0  0  0
   45.7640  -41.4254    0.0000 H   0  0  0  0  0  0  0  0  0  0  0  0
   57.6083  -39.4215    0.0000 H   0  0  0  0  0  0  0  0  0  0  0  0
   58.4333  -40.8505    0.0000 H   0  0  0  0  0  0  0  0  0  0  0  0
   57.6083  -42.2794    0.0000 H   0  0  0  0  0  0  0  0  0  0  0  0
   54.7208  -38.7070    0.0000 H   0  0  0  0  0  0  0  0  0  0  0  0
   53.4833  -42.2794    0.0000 H   0  0  0  0  0  0  0  0  0  0  0  0
   53.4833  -39.4215    0.0000 H   0  0  0  0  0  0  0  0  0  0  0  0
    2.0625  -45.3313    0.0000 H   0  0  0  0  0  0  0  0  0  0  0  0
    2.8875  -46.7603    0.0000 H   0  0  0  0  0  0  0  0  0  0  0  0
    2.0625  -48.1892    0.0000 H   0  0  0  0  0  0  0  0  0  0  0  0
    0.4125  -48.1892    0.0000 H   0  0  0  0  0  0  0  0  0  0  0  0
    0.8250  -44.6168    0.0000 H   0  0  0  0  0  0  0  0  0  0  0  0
   -0.8250  -44.6168    0.0000 H   0  0  0  0  0  0  0  0  0  0  0  0
   -0.4125  -48.1892    0.0000 H   0  0  0  0  0  0  0  0  0  0  0  0
   -2.0625  -48.1892    0.0000 H   0  0  0  0  0  0  0  0  0  0  0  0
   -2.8875  -46.7603    0.0000 H   0  0  0  0  0  0  0  0  0  0  0  0
   -2.0625  -45.3313    0.0000 H   0  0  0  0  0  0  0  0  0  0  0  0
   -0.4125  -23.8377    0.0000 H   0  0  0  0  0  0  0  0  0  0  0  0
   -1.2375  -24.6627    0.0000 H   0  0  0  0  0  0  0  0  0  0  0  0
   -0.4125  -25.4877    0.0000 H   0  0  0  0  0  0  0  0  0  0  0  0
    7.4976   -9.7007    0.0000 H   0  0  0  0  0  0  0  0  0  0  0  0
    8.3226  -10.5257    0.0000 H   0  0  0  0  0  0  0  0  0  0  0  0
  1  2  1  0  0  0  0
  1  5  1  0  0  0  0
  2  3  1  0  0  0  0
  3  4  1  0  0  0  0
  4  5  1  0  0  0  0
  6  7  1  0  0  0  0
  6 11  1  0  0  0  0
  7  8  1  0  0  0  0
  8  9  1  0  0  0  0
  9 10  1  0  0  0  0
 10 11  1  0  0  0  0
 12 13  1  0  0  0  0
 12 17  2  0  0  0  0
 13 14  2  0  0  0  0
 14 15  1  0  0  0  0
 15 16  2  0  0  0  0
 16 17  1  0  0  0  0
 18 19  1  0  0  0  0
 18 23  2  0  0  0  0
 18 27  1  0  0  0  0
 19 20  2  0  0  0  0
 20 21  1  0  0  0  0
 21 22  2  0  0  0  0
 22 23  1  0  0  0  0
 23 24  1  0  0  0  0
 24 25  2  0  0  0  0
 25 26  1  0  0  0  0
 26 27  2  0  0  0  0
 28 29  1  0  0  0  0
 29 30  1  0  0  0  0
 31 32  1  0  0  0  0
 32 33  1  0  0  0  0
 32 34  2  0  0  0  0
 35 36  1  0  0  0  0
 35 37  2  0  0  0  0
 35 38  1  0  0  0  0
 39 40  1  0  0  0  0
 39 41  1  0  0  0  0
 42 43  1  0  0  0  0
 42 44  1  0  0  0  0
 45 46  1  0  0  0  0
 45 47  2  0  0  0  0
 45 48  1  0  0  0  0
 45 49  1  0  0  0  0
 48 50  1  0  0  0  0
 51 52  2  0  0  0  0
 51 53  1  0  0  0  0
 51 54  1  0  0  0  0
 51 55  1  0  0  0  0
 56 57  1  0  0  0  0
 58 59  1  0  0  0  0
 59 60  1  0  0  0  0
 61 62  1  0  0  0  0
 62 63  1  0  0  0  0
 62 64  1  0  0  0  0
 65 66  1  0  0  0  0
 66 67  1  0  0  0  0
 66 68  1  0  0  0  0
 66 69  1  0  0  0  0
 70 71  1  0  0  0  0
 70 72  1  0  0  0  0
 70 73  1  0  0  0  0
 72 74  1  0  0  0  0
 75 76  1  0  0  0  0
 75 80  2  0  0  0  0
 76 77  2  0  0  0  0
 77 78  1  0  0  0  0
 78 79  2  0  0  0  0
 79 80  1  0  0  0  0
 81 82  1  0  0  0  0
 81 85  1  0  0  0  0
 82 83  1  0  0  0  0
 83 84  1  0  0  0  0
 84 85  1  0  0  0  0
 86 87  1  0  0  0  0
 88 89  1  0  0  0  0
 90 91  2  0  0  0  0
 92 93  1  0  0  0  0
 92 97  1  0  0  0  0
 93 94  1  0  0  0  0
 94 95  1  0  0  0  0
 95 96  1  0  0  0  0
 96 97  1  0  0  0  0
 98 99  1  0  0  0  0
 99100  2  0  0  0  0
 99101  2  0  0  0  0
102103  1  0  0  0  0
104105  1  0  0  0  0
104106  2  0  0  0  0
104107  1  0  0  0  0
108109  1  0  0  0  0
108110  2  0  0  0  0
108111  1  0  0  0  0
112113  1  0  0  0  0
113114  1  0  0  0  0
115116  1  0  0  0  0
116117  1  0  0  0  0
117118  1  0  0  0  0
119120  1  0  0  0  0
120121  1  0  0  0  0
121122  1  0  0  0  0
121123  1  0  0  0  0
120124  2  0  0  0  0
125126  2  0  0  0  0
125127  1  0  0  0  0
125128  1  0  0  0  0
129130  1  0  0  0  0
130131  2  0  0  0  0
131132  1  0  0  0  0
133134  1  0  0  0  0
134135  1  0  0  0  0
135136  3  0  0  0  0
137138  1  0  0  0  0
138139  1  0  0  0  0
139140  2  0  0  0  0
141142  1  0  0  0  0
142143  1  0  0  0  0
142144  2  0  0  0  0
145146  3  0  0  0  0
147148  1  0  0  0  0
148149  2  0  0  0  0
150151  2  0  0  0  0
 99152  1  0  0  0  0
153154  2  0  0  0  0
154155  2  0  0  0  0
154156  1  0  0  0  0
157158  1  0  0  0  0
158159  1  0  0  0  0
158160  2  0  0  0  0
161162  1  0  0  0  0
162163  1  0  0  0  0
163164  1  0  0  0  0
165166  1  0  0  0  0
166167  1  0  0  0  0
167168  1  0  0  0  0
168169  1  0  0  0  0
169170  1  0  0  0  0
165170  1  0  0  0  0
171172  1  0  0  0  0
172173  2  0  0  0  0
173174  1  0  0  0  0
174175  2  0  0  0  0
175176  1  0  0  0  0
171176  2  0  0  0  0
177178  2  0  0  0  0
178179  1  0  0  0  0
179180  2  0  0  0  0
180181  1  0  0  0  0
177181  1  0  0  0  0
182183  2  0  0  0  0
183184  1  0  0  0  0
184185  2  0  0  0  0
185186  1  0  0  0  0
182186  1  0  0  0  0
187188  1  0  0  0  0
187189  1  0  0  0  0
187190  2  0  0  0  0
191192  1  0  0  0  0
192193  2  0  0  0  0
193194  1  0  0  0  0
194195  1  0  0  0  0
191195  1  0  0  0  0
196197  1  0  0  0  0
197198  1  0  0  0  0
198199  1  0  0  0  0
199200  2  0  0  0  0
200201  1  0  0  0  0
196201  2  0  0  0  0
202203  1  0  0  0  0
203204  2  0  0  0  0
204205  1  0  0  0  0
205206  2  0  0  0  0
206207  1  0  0  0  0
208209  2  0  0  0  0
209210  1  0  0  0  0
210211  2  0  0  0  0
202207  2  0  0  0  0
202211  1  0  0  0  0
207208  1  0  0  0  0
212213  1  0  0  0  0
213214  2  0  0  0  0
214215  1  0  0  0  0
215216  2  0  0  0  0
216217  1  0  0  0  0
212217  2  0  0  0  0
218219  1  0  0  0  0
219220  2  0  0  0  0
220221  1  0  0  0  0
221222  2  0  0  0  0
222223  1  0  0  0  0
218223  2  0  0  0  0
216224  1  0  0  0  0
222225  1  0  0  0  0
223226  1  0  0  0  0
227228  1  0  0  0  0
229230  2  0  0  0  0
229231  1  0  0  0  0
233232  1  0  0  0  0
232234  1  0  0  0  0
232235  1  0  0  0  0
236237  1  0  0  0  0
236238  1  0  0  0  0
239240  1  0  0  0  0
241242  2  0  0  0  0
241243  2  0  0  0  0
244245  1  0  0  0  0
246247  1  0  0  0  0
246248  2  0  0  0  0
249250  1  0  0  0  0
250251  2  0  0  0  0
251252  1  0  0  0  0
252253  2  0  0  0  0
249253  1  0  0  0  0
250254  1  0  0  0  0
255256  1  0  0  0  0
256257  2  0  0  0  0
257258  1  0  0  0  0
258259  2  0  0  0  0
255259  1  0  0  0  0
256260  1  0  0  0  0
259261  1  0  0  0  0
262263  1  0  0  0  0
262264  1  0  0  0  0
262265  2  0  0  0  0
266267  1  0  0  0  0
267268  2  0  0  0  0
268269  1  0  0  0  0
269270  1  0  0  0  0
266270  2  0  0  0  0
270271  1  0  0  0  0
267272  1  0  0  0  0
268273  1  0  0  0  0
274275  2  0  0  0  0
274276  1  0  0  0  0
277278  1  0  0  0  0
277279  1  0  0  0  0
277280  1  0  0  0  0
281282  1  0  0  0  0
281283  1  0  0  0  0
292293  1  0  0  0  0
293294  1  0  0  0  0
294295  2  0  0  0  0
295296  1  0  0  0  0
292296  1  0  0  0  0
297298  1  0  0  0  0
297299  1  0  0  0  0
297300  1  0  0  0  0
297301  2  0  0  0  0
302303  1  0  0  0  0
303304  2  0  0  0  0
304305  1  0  0  0  0
305306  2  0  0  0  0
306307  1  0  0  0  0
302307  2  0  0  0  0
308309  1  0  0  0  0
309310  2  0  0  0  0
310311  1  0  0  0  0
311312  2  0  0  0  0
312313  1  0  0  0  0
308313  2  0  0  0  0
303314  1  0  0  0  0
309315  1  0  0  0  0
311316  1  0  0  0  0
317318  1  0  0  0  0
318319  2  0  0  0  0
319320  1  0  0  0  0
320321  1  0  0  0  0
317321  2  0  0  0  0
322323  1  0  0  0  0
323324  2  0  0  0  0
324325  1  0  0  0  0
325326  1  0  0  0  0
322326  2  0  0  0  0
325327  1  6  0  0  0
323328  1  0  0  0  0
318329  1  0  0  0  0
330331  2  0  0  0  0
330332  1  0  0  0  0
333334  1  0  0  0  0
333335  2  0  0  0  0
336337  1  0  0  0  0
336338  1  1  0  0  0
336339  1  6  0  0  0
336340  2  0  0  0  0
341342  1  0  0  0  0
341343  1  0  0  0  0
341344  1  0  0  0  0
342345  1  0  0  0  0
342349  2  0  0  0  0
345346  2  0  0  0  0
346347  1  0  0  0  0
347348  2  0  0  0  0
348349  1  0  0  0  0
350351  1  0  0  0  0
351352  2  0  0  0  0
352353  1  0  0  0  0
353354  2  0  0  0  0
354355  1  0  0  0  0
350355  2  0  0  0  0
351356  1  0  0  0  0
356357  1  0  0  0  0
356358  1  0  0  0  0
353359  1  0  0  0  0
359360  1  0  0  0  0
359361  1  0  0  0  0
337362  1  0  0  0  0
363364  1  0  0  0  0
364365  2  0  0  0  0
365366  1  0  0  0  0
366367  2  0  0  0  0
367368  1  0  0  0  0
363368  2  0  0  0  0
363369  1  0  0  0  0
365370  1  0  0  0  0
367371  1  0  0  0  0
369372  1  0  0  0  0
371373  1  0  0  0  0
369374  1  0  0  0  0
370375  1  0  0  0  0
371376  1  0  0  0  0
370377  1  0  0  0  0
378379  1  0  0  0  0
379380  1  0  0  0  0
378381  1  0  0  0  0
378385  2  0  0  0  0
381382  2  0  0  0  0
382383  1  0  0  0  0
383384  2  0  0  0  0
384385  1  0  0  0  0
276386  1  0  0  0  0
276387  1  0  0  0  0
275388  1  0  0  0  0
389390  1  0  0  0  0
389391  2  0  0  0  0
389392  1  0  0  0  0
392393  1  0  0  0  0
393394  1  0  0  0  0
393398  2  0  0  0  0
394395  2  0  0  0  0
395396  1  0  0  0  0
396397  2  0  0  0  0
397398  1  0  0  0  0
379399  1  0  0  0  0
392400  1  0  0  0  0
391401  1  0  0  0  0
390402  1  0  0  0  0
390403  1  0  0  0  0
404405  1  0  0  0  0
404409  2  0  0  0  0
405406  2  0  0  0  0
406407  1  0  0  0  0
407408  2  0  0  0  0
410409  1  0  0  0  0
408409  1  0  0  0  0
408411  1  0  0  0  0
410413  2  0  0  0  0
411412  2  0  0  0  0
414413  1  0  0  0  0
412413  1  0  0  0  0
412415  1  0  0  0  0
414417  2  0  0  0  0
415416  2  0  0  0  0
416417  1  0  0  0  0
418419  1  0  0  0  0
418423  2  0  0  0  0
419420  2  0  0  0  0
420421  1  0  0  0  0
421422  2  0  0  0  0
424423  1  0  0  0  0
422423  1  0  0  0  0
422425  1  0  0  0  0
424427  2  0  0  0  0
425426  2  0  0  0  0
428427  1  0  0  0  0
426427  1  0  0  0  0
426429  1  0  0  0  0
428431  2  0  0  0  0
429430  2  0  0  0  0
430431  1  0  0  0  0
432433  1  0  0  0  0
432437  2  0  0  0  0
433434  2  0  0  0  0
434435  1  0  0  0  0
435436  2  0  0  0  0
438437  1  0  0  0  0
436437  1  0  0  0  0
436439  1  0  0  0  0
438441  2  0  0  0  0
440441  1  0  0  0  0
439442  2  0  0  0  0
439440  1  0  0  0  0
440445  2  0  0  0  0
442443  1  0  0  0  0
443444  2  0  0  0  0
444445  1  0  0  0  0
446447  1  0  0  0  0
446451  2  0  0  0  0
447448  2  0  0  0  0
448449  1  0  0  0  0
449450  2  0  0  0  0
452451  1  0  0  0  0
450451  1  0  0  0  0
450453  1  0  0  0  0
452455  2  0  0  0  0
454455  1  0  0  0  0
453456  2  0  0  0  0
453454  1  0  0  0  0
454459  2  0  0  0  0
456457  1  0  0  0  0
457458  2  0  0  0  0
458459  1  0  0  0  0
  1460  1  0  0  0  0
  1461  1  0  0  0  0
  2462  1  0  0  0  0
  2463  1  0  0  0  0
  3464  1  0  0  0  0
  3465  1  0  0  0  0
  4466  1  0  0  0  0
  4467  1  0  0  0  0
  5468  1  0  0  0  0
  5469  1  0  0  0  0
  6470  1  0  0  0  0
  6471  1  0  0  0  0
  7472  1  0  0  0  0
  7473  1  0  0  0  0
  8474  1  0  0  0  0
  8475  1  0  0  0  0
  9476  1  0  0  0  0
  9477  1  0  0  0  0
 10478  1  0  0  0  0
 10479  1  0  0  0  0
 11480  1  0  0  0  0
 11481  1  0  0  0  0
 12482  1  0  0  0  0
 13483  1  0  0  0  0
 14484  1  0  0  0  0
 15485  1  0  0  0  0
 16486  1  0  0  0  0
 17487  1  0  0  0  0
 19488  1  0  0  0  0
 20489  1  0  0  0  0
 21490  1  0  0  0  0
 22491  1  0  0  0  0
 24492  1  0  0  0  0
 25493  1  0  0  0  0
 26494  1  0  0  0  0
 27495  1  0  0  0  0
 28496  1  0  0  0  0
 28497  1  0  0  0  0
 28498  1  0  0  0  0
 31499  1  0  0  0  0
 31500  1  0  0  0  0
 31501  1  0  0  0  0
 33502  1  0  0  0  0
 33503  1  0  0  0  0
 33504  1  0  0  0  0
 36505  1  0  0  0  0
 38506  1  0  0  0  0
 38507  1  0  0  0  0
 38508  1  0  0  0  0
 40509  1  0  0  0  0
 40510  1  0  0  0  0
 40511  1  0  0  0  0
 42512  1  0  0  0  0
 50513  1  0  0  0  0
 50514  1  0  0  0  0
 50515  1  0  0  0  0
 53516  1  0  0  0  0
 53517  1  0  0  0  0
 53518  1  0  0  0  0
 56519  1  0  0  0  0
 56520  1  0  0  0  0
 56521  1  0  0  0  0
 57522  1  0  0  0  0
 57523  1  0  0  0  0
 57524  1  0  0  0  0
 58525  1  0  0  0  0
 58526  1  0  0  0  0
 58527  1  0  0  0  0
 59528  1  0  0  0  0
 59529  1  0  0  0  0
 60530  1  0  0  0  0
 60531  1  0  0  0  0
 60532  1  0  0  0  0
 61533  1  0  0  0  0
 61534  1  0  0  0  0
 61535  1  0  0  0  0
 62536  1  0  0  0  0
 63537  1  0  0  0  0
 63538  1  0  0  0  0
 63539  1  0  0  0  0
 64540  1  0  0  0  0
 64541  1  0  0  0  0
 64542  1  0  0  0  0
 65543  1  0  0  0  0
 65544  1  0  0  0  0
 65545  1  0  0  0  0
 67546  1  0  0  0  0
 67547  1  0  0  0  0
 67548  1  0  0  0  0
 68549  1  0  0  0  0
 68550  1  0  0  0  0
 68551  1  0  0  0  0
 69552  1  0  0  0  0
 69553  1  0  0  0  0
 69554  1  0  0  0  0
 70555  1  0  0  0  0
 71556  1  0  0  0  0
 71557  1  0  0  0  0
 71558  1  0  0  0  0
 72559  1  0  0  0  0
 72560  1  0  0  0  0
 73561  1  0  0  0  0
 73562  1  0  0  0  0
 73563  1  0  0  0  0
 74564  1  0  0  0  0
 74565  1  0  0  0  0
 74566  1  0  0  0  0
 75567  1  0  0  0  0
 76568  1  0  0  0  0
 77569  1  0  0  0  0
 78570  1  0  0  0  0
 79571  1  0  0  0  0
 81572  1  0  0  0  0
 81573  1  0  0  0  0
 82574  1  0  0  0  0
 82575  1  0  0  0  0
 83576  1  0  0  0  0
 83577  1  0  0  0  0
 84578  1  0  0  0  0
 84579  1  0  0  0  0
 85580  1  0  0  0  0
 86581  1  0  0  0  0
 86582  1  0  0  0  0
 86583  1  0  0  0  0
 88584  1  0  0  0  0
 88585  1  0  0  0  0
 88586  1  0  0  0  0
 90587  1  0  0  0  0
 90588  1  0  0  0  0
 92589  1  0  0  0  0
 92590  1  0  0  0  0
 93591  1  0  0  0  0
 93592  1  0  0  0  0
 94593  1  0  0  0  0
 94594  1  0  0  0  0
 95595  1  0  0  0  0
 95596  1  0  0  0  0
 96597  1  0  0  0  0
 96598  1  0  0  0  0
 98599  1  0  0  0  0
 98600  1  0  0  0  0
103601  1  0  0  0  0
103602  1  0  0  0  0
103603  1  0  0  0  0
107604  1  0  0  0  0
107605  1  0  0  0  0
107606  1  0  0  0  0
111607  1  0  0  0  0
111608  1  0  0  0  0
111609  1  0  0  0  0
112610  1  0  0  0  0
112611  1  0  0  0  0
112612  1  0  0  0  0
114613  1  0  0  0  0
114614  1  0  0  0  0
114615  1  0  0  0  0
115616  1  0  0  0  0
115617  1  0  0  0  0
115618  1  0  0  0  0
118619  1  0  0  0  0
118620  1  0  0  0  0
118621  1  0  0  0  0
119622  1  0  0  0  0
119623  1  0  0  0  0
119624  1  0  0  0  0
122625  1  0  0  0  0
122626  1  0  0  0  0
122627  1  0  0  0  0
123628  1  0  0  0  0
123629  1  0  0  0  0
123630  1  0  0  0  0
126631  1  0  0  0  0
127632  1  0  0  0  0
127633  1  0  0  0  0
127634  1  0  0  0  0
128635  1  0  0  0  0
128636  1  0  0  0  0
128637  1  0  0  0  0
129638  1  0  0  0  0
129639  1  0  0  0  0
129640  1  0  0  0  0
132641  1  0  0  0  0
132642  1  0  0  0  0
132643  1  0  0  0  0
133644  1  0  0  0  0
133645  1  0  0  0  0
133646  1  0  0  0  0
137647  1  0  0  0  0
137648  1  0  0  0  0
137649  1  0  0  0  0
139650  1  0  0  0  0
141651  1  0  0  0  0
145652  1  0  0  0  0
150653  1  0  0  0  0
152654  1  0  0  0  0
152655  1  0  0  0  0
154656  1  0  0  0  0
156657  1  0  0  0  0
157658  1  0  0  0  0
157659  1  0  0  0  0
157660  1  0  0  0  0
159661  1  0  0  0  0
159662  1  0  0  0  0
159663  1  0  0  0  0
161664  1  0  0  0  0
161665  1  0  0  0  0
161666  1  0  0  0  0
164667  1  0  0  0  0
164668  1  0  0  0  0
164669  1  0  0  0  0
166670  1  0  0  0  0
166671  1  0  0  0  0
167672  1  0  0  0  0
167673  1  0  0  0  0
168674  1  0  0  0  0
168675  1  0  0  0  0
169676  1  0  0  0  0
170677  1  0  0  0  0
170678  1  0  0  0  0
172679  1  0  0  0  0
173680  1  0  0  0  0
174681  1  0  0  0  0
176682  1  0  0  0  0
177683  1  0  0  0  0
178684  1  0  0  0  0
179685  1  0  0  0  0
180686  1  0  0  0  0
181687  1  0  0  0  0
181688  1  0  0  0  0
182689  1  0  0  0  0
183690  1  0  0  0  0
184691  1  0  0  0  0
186692  1  0  0  0  0
186693  1  0  0  0  0
189694  1  0  0  0  0
189695  1  0  0  0  0
189696  1  0  0  0  0
190697  1  0  0  0  0
191698  1  0  0  0  0
191699  1  0  0  0  0
193700  1  0  0  0  0
197701  1  0  0  0  0
197702  1  0  0  0  0
198703  1  0  0  0  0
199704  1  0  0  0  0
201705  1  0  0  0  0
203706  1  0  0  0  0
204707  1  0  0  0  0
206708  1  0  0  0  0
208709  1  0  0  0  0
210710  1  0  0  0  0
212711  1  0  0  0  0
213712  1  0  0  0  0
214713  1  0  0  0  0
215714  1  0  0  0  0
217715  1  0  0  0  0
218716  1  0  0  0  0
219717  1  0  0  0  0
220718  1  0  0  0  0
221719  1  0  0  0  0
224720  1  0  0  0  0
225721  1  0  0  0  0
226722  1  0  0  0  0
227723  1  0  0  0  0
227724  1  0  0  0  0
227725  1  0  0  0  0
229726  1  0  0  0  0
232727  1  0  0  0  0
236728  1  0  0  0  0
236729  1  0  0  0  0
239730  1  0  0  0  0
239731  1  0  0  0  0
239732  1  0  0  0  0
242733  1  0  0  0  0
242734  1  0  0  0  0
243735  1  0  0  0  0
243736  1  0  0  0  0
244737  1  0  0  0  0
244738  1  0  0  0  0
245739  1  0  0  0  0
245740  1  0  0  0  0
245741  1  0  0  0  0
246742  1  0  0  0  0
247743  1  0  0  0  0
247744  1  0  0  0  0
249745  1  0  0  0  0
249746  1  0  0  0  0
251747  1  0  0  0  0
252748  1  0  0  0  0
253749  1  0  0  0  0
254750  1  0  0  0  0
254751  1  0  0  0  0
255752  1  0  0  0  0
255753  1  0  0  0  0
257754  1  0  0  0  0
260755  1  0  0  0  0
260756  1  0  0  0  0
261757  1  0  0  0  0
261758  1  0  0  0  0
263759  1  0  0  0  0
263760  1  0  0  0  0
263761  1  0  0  0  0
264762  1  0  0  0  0
264763  1  0  0  0  0
265764  1  0  0  0  0
265765  1  0  0  0  0
269766  1  0  0  0  0
271767  1  0  0  0  0
271768  1  0  0  0  0
272769  1  0  0  0  0
272770  1  0  0  0  0
273771  1  0  0  0  0
273772  1  0  0  0  0
274773  1  0  0  0  0
277774  1  0  0  0  0
281775  1  0  0  0  0
281776  1  0  0  0  0
284777  1  0  0  0  0
284778  1  0  0  0  0
284779  1  0  0  0  0
284780  1  0  0  0  0
285781  1  0  0  0  0
285782  1  0  0  0  0
285783  1  0  0  0  0
286784  1  0  0  0  0
286785  1  0  0  0  0
287786  1  0  0  0  0
287787  1  0  0  0  0
288788  1  0  0  0  0
289789  1  0  0  0  0
290790  1  0  0  0  0
291791  1  0  0  0  0
291792  1  0  0  0  0
291793  1  0  0  0  0
292794  1  0  0  0  0
293795  1  0  0  0  0
294796  1  0  0  0  0
296797  1  0  0  0  0
296798  1  0  0  0  0
298799  1  0  0  0  0
299800  1  0  0  0  0
300801  1  0  0  0  0
300802  1  0  0  0  0
300803  1  0  0  0  0
302804  1  0  0  0  0
304805  1  0  0  0  0
305806  1  0  0  0  0
306807  1  0  0  0  0
307808  1  0  0  0  0
308809  1  0  0  0  0
310810  1  0  0  0  0
312811  1  0  0  0  0
313812  1  0  0  0  0
317813  1  0  0  0  0
319814  1  0  0  0  0
320815  1  0  0  0  0
320816  1  0  0  0  0
321817  1  0  0  0  0
322818  1  0  0  0  0
324819  1  0  0  0  0
325820  1  1  0  0  0
326821  1  0  0  0  0
332822  1  0  0  0  0
333823  1  0  0  0  0
334824  1  0  0  0  0
338825  1  0  0  0  0
339826  1  0  0  0  0
339827  1  0  0  0  0
339828  1  0  0  0  0
345829  1  0  0  0  0
346830  1  0  0  0  0
347831  1  0  0  0  0
348832  1  0  0  0  0
349833  1  0  0  0  0
350834  1  0  0  0  0
352835  1  0  0  0  0
354836  1  0  0  0  0
355837  1  0  0  0  0
362838  1  0  0  0  0
362839  1  0  0  0  0
362840  1  0  0  0  0
364841  1  0  0  0  0
366842  1  0  0  0  0
368843  1  0  0  0  0
380844  1  0  0  0  0
380845  1  0  0  0  0
380846  1  0  0  0  0
381847  1  0  0  0  0
382848  1  0  0  0  0
383849  1  0  0  0  0
384850  1  0  0  0  0
385851  1  0  0  0  0
394852  1  0  0  0  0
395853  1  0  0  0  0
396854  1  0  0  0  0
397855  1  0  0  0  0
398856  1  0  0  0  0
405857  1  0  0  0  0
406858  1  0  0  0  0
407859  1  0  0  0  0
410860  1  0  0  0  0
414861  1  0  0  0  0
416862  1  0  0  0  0
418863  1  0  0  0  0
419864  1  0  0  0  0
420865  1  0  0  0  0
421866  1  0  0  0  0
424867  1  0  0  0  0
425868  1  0  0  0  0
428869  1  0  0  0  0
429870  1  0  0  0  0
430871  1  0  0  0  0
431872  1  0  0  0  0
432873  1  0  0  0  0
433874  1  0  0  0  0
434875  1  0  0  0  0
441876  1  0  0  0  0
443877  1  0  0  0  0
445878  1  0  0  0  0
446879  1  0  0  0  0
447880  1  0  0  0  0
448881  1  0  0  0  0
449882  1  0  0  0  0
452883  1  0  0  0  0
455884  1  0  0  0  0
456885  1  0  0  0  0
457886  1  0  0  0  0
458887  1  0  0  0  0
459888  1  0  0  0  0
228889  1  0  0  0  0
228890  1  0  0  0  0
228891  1  0  0  0  0
152892  1  0  0  0  0
 98893  1  0  0  0  0
M  CHG  8  46  -1  49  -1  54  -1  55  -1  97  -1 142   1 143  -1 147  -1
M  CHG  8 165  -1 188  -1 194  -1 195  -1 228   1 231  -1 232   1 236   1
M  CHG  3 239   1 241   1 268   1
M  END
$$$$
