
  Marvin  07121013272D          

  8  4  0  0  0  0            999 V2000
    0.4125    0.0000    0.0000 C   0  0  0  0  0  0  0  0  0  0  0  0
   -0.4125    0.0000    0.0000 C   0  0  0  0  0  0  0  0  0  0  0  0
    3.4768    0.0000    0.0000 C   0  0  0  0  0  0  0  0  0  0  0  0
    2.6518    0.0000    0.0000 C   0  0  0  0  0  0  0  0  0  0  0  0
    0.0000   -1.7875    0.0000 C   0  0  0  0  0  0  0  0  0  0  0  0
    2.9538   -2.0625    0.0000 C   0  0  0  0  0  0  0  0  0  0  0  0
    2.2393   -1.6500    0.0000 C   0  0  0  0  0  0  0  0  0  0  0  0
    3.6682   -1.6500    0.0000 C   0  0  0  0  0  0  0  0  0  0  0  0
  1  2  1  0  0  0  0
  3  4  2  0  0  0  0
  6  7  1  0  0  0  0
  6  8  1  0  0  0  0
M  END
$$$$
